@<TRIPOS>MOLECULE
CHEMBL31128
   62    65     0     0     0
SMALL
USER_CHARGES

@<TRIPOS>ATOM
      1 C1          0.4194    0.6330    1.8970 C.3       1 <0>        -0.1531
      2 C2          0.3358   -0.7076    1.1645 C.3       1 <0>        -0.0819
      3 C3          1.1617   -1.7526    1.9174 C.3       1 <0>        -0.1506
      4 C4         -1.1236   -1.1623    1.0979 C.3       1 <0>        -0.1553
      5 H1         -1.5225   -1.2778    2.1056 H         1 <0>         0.1161
      6 C5         -1.2223   -2.4945    0.3404 C.3       1 <0>         0.1457
      7 H2         -0.6230   -3.2485    0.8508 H         1 <0>         0.1456
      8 O1         -0.7348   -2.3188   -0.9898 O.3       1 <0>        -0.2918
      9 C6         -1.2461   -1.3169   -1.7421 C.ar      1 <0>         0.1930
     10 C7         -1.1708   -1.3800   -3.1243 C.ar      1 <0>        -0.1967
     11 C8         -1.6904   -0.3489   -3.8930 C.ar      1 <0>         0.1827
     12 C9         -2.2888    0.7536   -3.2879 C.ar      1 <0>        -0.1873
     13 C10        -2.3735    0.8304   -1.9269 C.ar      1 <0>        -0.0081
     14 C11        -1.8566   -0.2027   -1.1396 C.ar      1 <0>        -0.2569
     15 C12        -1.9476   -0.1449    0.3290 C.2       1 <0>         0.4124
     16 O2         -2.6446    0.6709    0.8955 O.2       1 <0>        -0.4380
     17 O3         -1.6147   -0.4148   -5.2460 O.3       1 <0>        -0.4907
     18 C13        -2.6607   -2.9417    0.2946 C.ar      1 <0>        -0.1485
     19 C14        -3.3174   -3.0309   -0.9189 C.ar      1 <0>        -0.0657
     20 C15        -4.6360   -3.4401   -0.9636 C.ar      1 <0>        -0.1353
     21 C16        -5.3013   -3.7621    0.2105 C.ar      1 <0>         0.1202
     22 C17        -4.6400   -3.6722    1.4268 C.ar      1 <0>        -0.1978
     23 C18        -3.3198   -3.2675    1.4656 C.ar      1 <0>        -0.0614
     24 O4         -6.5987   -4.1645    0.1693 O.3       1 <0>        -0.3267
     25 C19        -7.2201   -4.4799    1.4168 C.3       1 <0>         0.0247
     26 C20        -8.6678   -4.9096    1.1713 C.3       1 <0>        -0.0009
     27 N1         -8.6835   -6.1572    0.3960 N.4       1 <0>        -0.3844
     28 C21       -10.0654   -6.4822    0.0226 C.3       1 <0>        -0.0071
     29 C22       -10.0794   -7.7367   -0.8534 C.3       1 <0>        -0.1467
     30 C23        -9.4719   -8.9052   -0.0720 C.3       1 <0>        -0.1390
     31 C24        -8.0575   -8.5262    0.3762 C.3       1 <0>        -0.1453
     32 C25        -8.1183   -7.2425    1.2067 C.3       1 <0>        -0.0133
     33 H3          1.4590    0.9569    1.9445 H         1 <0>         0.0667
     34 H4         -0.1690    1.3774    1.3606 H         1 <0>         0.0545
     35 H5          0.0276    0.5197    2.9079 H         1 <0>         0.0611
     36 H6          0.7276   -0.5944    0.1537 H         1 <0>         0.0826
     37 H7          0.7699   -1.8658    2.9283 H         1 <0>         0.0598
     38 H8          1.1021   -2.7077    1.3956 H         1 <0>         0.0602
     39 H9          2.2013   -1.4287    1.9649 H         1 <0>         0.0676
     40 H10        -0.7078   -2.2307   -3.6023 H         1 <0>         0.1479
     41 H11        -2.6877    1.5510   -3.8974 H         1 <0>         0.1408
     42 H12        -2.8378    1.6867   -1.4604 H         1 <0>         0.1414
     43 H13        -2.3741   -0.8453   -5.6619 H         1 <0>         0.4010
     44 H14        -2.7990   -2.7801   -1.8326 H         1 <0>         0.1396
     45 H15        -5.1488   -3.5089   -1.9116 H         1 <0>         0.1358
     46 H16        -5.1558   -3.9223    2.3421 H         1 <0>         0.1319
     47 H17        -2.8032   -3.2016    2.4117 H         1 <0>         0.1356
     48 H18        -6.6765   -5.2928    1.8983 H         1 <0>         0.0872
     49 H19        -7.2063   -3.6014    2.0620 H         1 <0>         0.1101
     50 H20        -9.1665   -5.0696    2.1272 H         1 <0>         0.1497
     51 H21        -9.1890   -4.1300    0.6156 H         1 <0>         0.1430
     52 H22       -10.6519   -6.6622    0.9236 H         1 <0>         0.1294
     53 H23       -10.4975   -5.6484   -0.5306 H         1 <0>         0.1311
     54 H24       -11.1065   -7.9773   -1.1281 H         1 <0>         0.1133
     55 H25        -9.4933   -7.5577   -1.7549 H         1 <0>         0.0879
     56 H26       -10.0867   -9.1177    0.8026 H         1 <0>         0.0823
     57 H27        -9.4277   -9.7872   -0.7110 H         1 <0>         0.0949
     58 H28        -7.6392   -9.3312    0.9805 H         1 <0>         0.1125
     59 H29        -7.4294   -8.3636   -0.4997 H         1 <0>         0.0878
     60 H30        -7.1129   -6.9699    1.5277 H         1 <0>         0.1270
     61 H31        -8.7464   -7.4062    2.0824 H         1 <0>         0.1305
     62 H32        -8.1303   -6.0398   -0.4396 H         1 <0>         0.4291
@<TRIPOS>BOND
     1    1    2 1
     2    1   33 1
     3    1   34 1
     4    1   35 1
     5    2    3 1
     6    2    4 1
     7    2   36 1
     8    3   37 1
     9    3   38 1
    10    3   39 1
    11    4    5 1
    12    4   15 1
    13    4    6 1
    14    6    7 1
    15    6    8 1
    16    6   18 1
    17    8    9 1
    18    9   14 ar
    19    9   10 ar
    20   10   11 ar
    21   10   40 1
    22   11   12 ar
    23   11   17 1
    24   12   13 ar
    25   12   41 1
    26   13   14 ar
    27   13   42 1
    28   14   15 1
    29   15   16 2
    30   17   43 1
    31   18   23 ar
    32   18   19 ar
    33   19   20 ar
    34   19   44 1
    35   20   21 ar
    36   20   45 1
    37   21   22 ar
    38   21   24 1
    39   22   23 ar
    40   22   46 1
    41   23   47 1
    42   24   25 1
    43   25   26 1
    44   25   48 1
    45   25   49 1
    46   26   27 1
    47   26   50 1
    48   26   51 1
    49   27   32 1
    50   27   28 1
    51   27   62 1
    52   28   29 1
    53   28   52 1
    54   28   53 1
    55   29   30 1
    56   29   54 1
    57   29   55 1
    58   30   31 1
    59   30   56 1
    60   30   57 1
    61   31   32 1
    62   31   58 1
    63   31   59 1
    64   32   60 1
    65   32   61 1
