@<TRIPOS>MOLECULE
ZINC15314116
   43    45     0     0     0
SMALL
USER_CHARGES
(2R)-N-(2-fluoro-4-methyl-phenyl)-2-phenyl-2-phenylsulfanyl-acetamide
@<TRIPOS>ATOM
      1 C1         -6.0583   -1.0218   -0.4021 C.3       1 <0>        -0.1158
      2 C2         -4.7664   -0.2538   -0.2904 C.ar      1 <0>        -0.0721
      3 C3         -3.5983   -0.7913   -0.7990 C.ar      1 <0>        -0.1067
      4 C4         -2.4118   -0.0909   -0.6984 C.ar      1 <0>        -0.0995
      5 C5         -2.3920    1.1546   -0.0860 C.ar      1 <0>         0.1111
      6 C6         -3.5669    1.6912    0.4291 C.ar      1 <0>         0.0738
      7 C7         -4.7519    0.9863    0.3209 C.ar      1 <0>        -0.1340
      8 F1         -3.5515    2.9006    1.0309 F         1 <0>        -0.1372
      9 N1         -1.1906    1.8667    0.0178 N.am      1 <0>        -0.6587
     10 C8         -0.0142    1.2090    0.0048 C.2       1 <0>         0.5470
     11 O1          0.0026   -0.0038    0.0043 O.2       1 <0>        -0.4903
     12 C9          1.2801    1.9806   -0.0156 C.3       1 <0>        -0.0704
     13 H1          1.1520    2.8898   -0.6029 H         1 <0>         0.1219
     14 C10         1.6705    2.3439    1.3939 C.ar      1 <0>        -0.0986
     15 C11         1.8838    1.3495    2.3302 C.ar      1 <0>        -0.0869
     16 C12         2.2461    1.6827    3.6219 C.ar      1 <0>        -0.1144
     17 C13         2.3860    3.0105    3.9799 C.ar      1 <0>        -0.1052
     18 C14         2.1681    4.0051    3.0449 C.ar      1 <0>        -0.1156
     19 C15         1.8100    3.6718    1.7520 C.ar      1 <0>        -0.1072
     20 S1          2.5815    0.9588   -0.7591 S.3       1 <0>        -0.0266
     21 C16         3.9725    2.0368   -0.8459 C.ar      1 <0>        -0.0969
     22 C17         3.8683    3.3463   -0.3922 C.ar      1 <0>        -0.1385
     23 C18         4.9619    4.1868   -0.4573 C.ar      1 <0>        -0.1004
     24 C19         6.1570    3.7300   -0.9825 C.ar      1 <0>        -0.1228
     25 C20         6.2629    2.4290   -1.4399 C.ar      1 <0>        -0.1008
     26 C21         5.1749    1.5814   -1.3735 C.ar      1 <0>        -0.0979
     27 H2         -6.1816   -1.6551    0.4765 H         1 <0>         0.0754
     28 H3         -6.8922   -0.3228   -0.4660 H         1 <0>         0.0698
     29 H4         -6.0354   -1.6430   -1.2974 H         1 <0>         0.0719
     30 H5         -3.6135   -1.7604   -1.2755 H         1 <0>         0.1353
     31 H6         -1.5002   -0.5124   -1.0955 H         1 <0>         0.1560
     32 H7         -5.6659    1.4031    0.7175 H         1 <0>         0.1405
     33 H8         -1.2051    2.8331    0.0992 H         1 <0>         0.4160
     34 H9          1.7705    0.3122    2.0516 H         1 <0>         0.1324
     35 H10         2.4167    0.9057    4.3524 H         1 <0>         0.1281
     36 H11         2.6658    3.2709    4.9900 H         1 <0>         0.1266
     37 H12         2.2774    5.0425    3.3245 H         1 <0>         0.1281
     38 H13         1.6394    4.4488    1.0216 H         1 <0>         0.1259
     39 H14         2.9342    3.7049    0.0143 H         1 <0>         0.1304
     40 H15         4.8828    5.2034   -0.1015 H         1 <0>         0.1245
     41 H16         7.0095    4.3908   -1.0360 H         1 <0>         0.1251
     42 H17         7.1976    2.0758   -1.8497 H         1 <0>         0.1287
     43 H18         5.2581    0.5658   -1.7315 H         1 <0>         0.1278
@<TRIPOS>BOND
     1    1    2 1
     2    1   27 1
     3    1   28 1
     4    1   29 1
     5    2    7 ar
     6    2    3 ar
     7    3    4 ar
     8    3   30 1
     9    4    5 ar
    10    4   31 1
    11    5    6 ar
    12    5    9 1
    13    6    7 ar
    14    6    8 1
    15    7   32 1
    16    9   10 am
    17    9   33 1
    18   10   11 2
    19   10   12 1
    20   12   13 1
    21   12   14 1
    22   12   20 1
    23   14   19 ar
    24   14   15 ar
    25   15   16 ar
    26   15   34 1
    27   16   17 ar
    28   16   35 1
    29   17   18 ar
    30   17   36 1
    31   18   19 ar
    32   18   37 1
    33   19   38 1
    34   20   21 1
    35   21   26 ar
    36   21   22 ar
    37   22   23 ar
    38   22   39 1
    39   23   24 ar
    40   23   40 1
    41   24   25 ar
    42   24   41 1
    43   25   26 ar
    44   25   42 1
    45   26   43 1
