@<TRIPOS>MOLECULE
ZINC38051473
   34    36     0     0     0
SMALL
USER_CHARGES

@<TRIPOS>ATOM
      1 C1         -2.1085   -2.6960    1.3920 C.ar      1 <0>        -0.0943
      2 C2         -3.0155   -3.2630    2.2674 C.ar      1 <0>        -0.0905
      3 C3         -4.0968   -2.5262    2.7159 C.ar      1 <0>        -0.0864
      4 C4         -4.2700   -1.2222    2.2881 C.ar      1 <0>        -0.0921
      5 C5         -3.3625   -0.6560    1.4127 C.ar      1 <0>        -0.1013
      6 C6         -2.2819   -1.3928    0.9647 C.ar      1 <0>        -0.0939
      7 C7         -1.2928   -0.7750    0.0103 C.3       1 <0>         0.1566
      8 N1         -1.6611   -1.1192   -1.3653 N.pl3     1 <0>        -0.6258
      9 C8         -2.4548   -0.1643   -2.1323 C.3       1 <0>         0.1277
     10 C9         -3.7058   -0.8787   -2.6666 C.3       1 <0>        -0.1227
     11 S1         -3.1528   -2.1478   -3.8453 S.3       1 <0>        -0.1309
     12 C10        -1.8218   -2.9365   -2.9959 C.ar      1 <0>        -0.1962
     13 C11        -1.2318   -2.3421   -1.8824 C.ar      1 <0>         0.2614
     14 C12        -0.1751   -2.9867   -1.2448 C.ar      1 <0>        -0.2608
     15 C13         0.2862   -4.2076   -1.7122 C.ar      1 <0>         0.2554
     16 C14        -0.3050   -4.7957   -2.8220 C.ar      1 <0>        -0.2271
     17 C15        -1.3621   -4.1628   -3.4572 C.ar      1 <0>        -0.0087
     18 N2          1.3495   -4.8477   -1.0647 N.pl3     1 <0>        -0.8766
     19 Br1        -5.3384   -3.3015    3.9131 Br        1 <0>        -0.0490
     20 H1         -1.2618   -3.2697    1.0452 H         1 <0>         0.1320
     21 H2         -2.8801   -4.2813    2.6009 H         1 <0>         0.1324
     22 H3         -5.1143   -0.6467    2.6378 H         1 <0>         0.1331
     23 H4         -3.4976    0.3621    1.0786 H         1 <0>         0.1296
     24 H5         -1.3018    0.3085    0.1285 H         1 <0>         0.0893
     25 H6         -0.2942   -1.1557    0.2251 H         1 <0>         0.0892
     26 H7         -2.7534    0.6632   -1.4887 H         1 <0>         0.0929
     27 H8         -1.8651    0.2138   -2.9674 H         1 <0>         0.0775
     28 H9         -4.2436   -1.3482   -1.8430 H         1 <0>         0.0905
     29 H10        -4.3535   -0.1621   -3.1716 H         1 <0>         0.1173
     30 H11         0.2881   -2.5327   -0.3813 H         1 <0>         0.1243
     31 H12         0.0523   -5.7480   -3.1850 H         1 <0>         0.1231
     32 H13        -1.8228   -4.6190   -4.3209 H         1 <0>         0.1270
     33 H14         1.7632   -4.4370   -0.2894 H         1 <0>         0.3972
     34 H15         1.6727   -5.7020   -1.3913 H         1 <0>         0.4000
@<TRIPOS>BOND
     1    1    6 ar
     2    1    2 ar
     3    1   20 1
     4    2    3 ar
     5    2   21 1
     6    3    4 ar
     7    3   19 1
     8    4    5 ar
     9    4   22 1
    10    5    6 ar
    11    5   23 1
    12    6    7 1
    13    7    8 1
    14    7   24 1
    15    7   25 1
    16    8   13 1
    17    8    9 1
    18    9   10 1
    19    9   26 1
    20    9   27 1
    21   10   11 1
    22   10   28 1
    23   10   29 1
    24   11   12 1
    25   12   17 ar
    26   12   13 ar
    27   13   14 ar
    28   14   15 ar
    29   14   30 1
    30   15   16 ar
    31   15   18 1
    32   16   17 ar
    33   16   31 1
    34   17   32 1
    35   18   33 1
    36   18   34 1
