@<TRIPOS>MOLECULE
ZINC64215479
   66    70     0     0     0
SMALL
USER_CHARGES

@<TRIPOS>ATOM
      1 C1          0.2483    1.8719    0.1368 C.3       1 <0>        -0.1623
      2 C2          0.3172    0.3478    0.0204 C.3       1 <0>         0.1288
      3 H1         -0.6915   -0.0558   -0.0678 H         1 <0>         0.1199
      4 C3          0.9799   -0.2203    1.2488 C.2       1 <0>         0.5213
      5 O1          2.0011   -0.8661    1.1432 O.2       1 <0>        -0.5271
      6 N1          0.4379   -0.0108    2.4649 N.am      1 <0>        -0.7229
      7 C4          1.0821   -0.5631    3.6591 C.3       1 <0>         0.1172
      8 C5          0.2702   -0.1825    4.8988 C.3       1 <0>        -0.0203
      9 H2         -0.7666   -0.4898    4.7625 H         1 <0>         0.1359
     10 C6          0.3295    1.3100    5.0993 C.ar      1 <0>        -0.1094
     11 C7          1.5485    1.9341    5.2881 C.ar      1 <0>        -0.1087
     12 C8          1.6029    3.3030    5.4720 C.ar      1 <0>        -0.1095
     13 C9          0.4384    4.0480    5.4668 C.ar      1 <0>        -0.0988
     14 C10        -0.7804    3.4240    5.2772 C.ar      1 <0>        -0.1085
     15 C11        -0.8345    2.0556    5.0889 C.ar      1 <0>        -0.1044
     16 C12         0.8448   -0.8750    6.1076 C.2       1 <0>         0.0938
     17 C13         2.0027   -1.5709    6.1723 C.ar      1 <0>        -0.1704
     18 C14         3.0338   -1.8806    5.1746 C.ar      1 <0>        -0.0256
     19 C15         4.1056   -2.6172    5.5457 C.ar      1 <0>        -0.1493
     20 C16         4.2558   -3.0916    6.8561 C.ar      1 <0>         0.0598
     21 C17         3.3511   -2.8483    7.8279 C.ar      1 <0>        -0.2114
     22 C18         2.1851   -2.0832    7.5492 C.ar      1 <0>         0.3373
     23 N2          1.1790   -1.7181    8.3063 N.pl3     1 <0>        -0.5803
     24 C19         0.2465   -0.9269    7.4957 C.3       1 <0>         0.1549
     25 H3          0.1529    0.0800    7.9024 H         1 <0>         0.1761
     26 C20        -1.1016   -1.5992    7.4555 C.ar      1 <0>        -0.1265
     27 C21        -1.1853   -2.9786    7.4204 C.ar      1 <0>        -0.1021
     28 C22        -2.4220   -3.5952    7.3835 C.ar      1 <0>        -0.1076
     29 C23        -3.5749   -2.8325    7.3821 C.ar      1 <0>        -0.0867
     30 C24        -3.4912   -1.4532    7.4180 C.ar      1 <0>        -0.1068
     31 C25        -2.2546   -0.8366    7.4593 C.ar      1 <0>        -0.0887
     32 N3          1.0946   -0.0166   -1.1666 N.am      1 <0>        -0.7127
     33 C26         0.4944   -0.0810   -2.3716 C.2       1 <0>         0.5251
     34 O2         -0.6893    0.1628   -2.4733 O.2       1 <0>        -0.5100
     35 C27         1.2940   -0.4559   -3.5927 C.3       1 <0>         0.0556
     36 H4          1.7925   -1.4148   -3.4508 H         1 <0>         0.1155
     37 C28         2.3154    0.6524   -3.9481 C.3       1 <0>        -0.1100
     38 C29         2.2624    0.6438   -5.4664 C.2       1 <0>        -0.2837
     39 C30         1.1835   -0.0217   -5.8180 C.2       1 <0>         0.0409
     40 O3          0.4611   -0.4765   -4.7684 O.3       1 <0>        -0.2889
     41 H5          1.2570    2.2755    0.2250 H         1 <0>         0.0673
     42 H6         -0.2310    2.2828   -0.7518 H         1 <0>         0.0807
     43 H7         -0.3301    2.1430    1.0200 H         1 <0>         0.0720
     44 H8         -0.3788    0.5057    2.5494 H         1 <0>         0.4083
     45 H9          1.1312   -1.6488    3.5762 H         1 <0>         0.0858
     46 H10         2.0908   -0.1595    3.7473 H         1 <0>         0.0868
     47 H11         2.4582    1.3521    5.2921 H         1 <0>         0.1198
     48 H12         2.5551    3.7906    5.6202 H         1 <0>         0.1300
     49 H13         0.4809    5.1174    5.6113 H         1 <0>         0.1314
     50 H14        -1.6902    4.0059    5.2735 H         1 <0>         0.1332
     51 H15        -1.7864    1.5685    4.9371 H         1 <0>         0.1304
     52 H16         2.9378   -1.5257    4.1591 H         1 <0>         0.1700
     53 H17         4.8654   -2.8462    4.8132 H         1 <0>         0.1597
     54 H18         5.1311   -3.6761    7.0980 H         1 <0>         0.1624
     55 H19         3.5134   -3.2371    8.8224 H         1 <0>         0.1622
     56 H20        -0.2846   -3.5744    7.4215 H         1 <0>         0.1185
     57 H21        -2.4874   -4.6729    7.3554 H         1 <0>         0.1359
     58 H22        -4.5410   -3.3143    7.3526 H         1 <0>         0.1375
     59 H23        -4.3919   -0.8573    7.4166 H         1 <0>         0.1396
     60 H24        -2.1892    0.2409    7.4911 H         1 <0>         0.1354
     61 H25         2.0413   -0.2116   -1.0853 H         1 <0>         0.4124
     62 H26         1.9985    1.6170   -3.5518 H         1 <0>         0.0855
     63 H27         3.3122    0.3938   -3.5908 H         1 <0>         0.0941
     64 H28         2.9781    1.1004   -6.1340 H         1 <0>         0.1539
     65 H29         0.9012   -0.1894   -6.8468 H         1 <0>         0.1822
     66 H30         1.0711   -1.9320    9.2463 H         1 <0>         0.4556
@<TRIPOS>BOND
     1    1    2 1
     2    1   41 1
     3    1   42 1
     4    1   43 1
     5    2    3 1
     6    2    4 1
     7    2   32 1
     8    4    5 2
     9    4    6 am
    10    6    7 1
    11    6   44 1
    12    7    8 1
    13    7   45 1
    14    7   46 1
    15    8    9 1
    16    8   10 1
    17    8   16 1
    18   10   15 ar
    19   10   11 ar
    20   11   12 ar
    21   11   47 1
    22   12   13 ar
    23   12   48 1
    24   13   14 ar
    25   13   49 1
    26   14   15 ar
    27   14   50 1
    28   15   51 1
    29   16   24 1
    30   16   17 2
    31   17   22 ar
    32   17   18 ar
    33   18   19 ar
    34   18   52 1
    35   19   20 ar
    36   19   53 1
    37   20   21 ar
    38   20   54 1
    39   21   22 ar
    40   21   55 1
    41   22   23 2
    42   23   24 1
    43   23   66 1
    44   24   25 1
    45   24   26 1
    46   26   31 ar
    47   26   27 ar
    48   27   28 ar
    49   27   56 1
    50   28   29 ar
    51   28   57 1
    52   29   30 ar
    53   29   58 1
    54   30   31 ar
    55   30   59 1
    56   31   60 1
    57   32   33 am
    58   32   61 1
    59   33   34 2
    60   33   35 1
    61   35   36 1
    62   35   40 1
    63   35   37 1
    64   37   38 1
    65   37   62 1
    66   37   63 1
    67   38   39 2
    68   38   64 1
    69   39   40 1
    70   39   65 1
