@<TRIPOS>MOLECULE
ZINC40742614
   51    52     0     0     0
SMALL
USER_CHARGES

@<TRIPOS>ATOM
      1 C1         -0.0187    1.5258    0.0104 C.3       1 <0>        -0.1550
      2 C2          0.0021   -0.0041    0.0020 C.3       1 <0>        -0.0902
      3 C3          0.7421   -0.5109    1.2415 C.3       1 <0>        -0.1606
      4 C4         -1.4333   -0.5336    0.0129 C.3       1 <0>        -0.1466
      5 C5         -1.4157   -2.0577   -0.1212 C.3       1 <0>        -0.0144
      6 N1         -2.7938   -2.5661   -0.1108 N.4       1 <0>        -0.5099
      7 C6         -2.7769   -4.0294   -0.2395 C.3       1 <0>         0.0478
      8 C7         -4.1907   -4.5510   -0.2288 C.ar      1 <0>        -0.1182
      9 C8         -4.7922   -4.8888    0.9695 C.ar      1 <0>        -0.1762
     10 C9         -6.0918   -5.3690    0.9817 C.ar      1 <0>         0.1358
     11 C10        -6.7897   -5.5099   -0.2139 C.ar      1 <0>         0.1091
     12 C11        -6.1814   -5.1692   -1.4120 C.ar      1 <0>        -0.0214
     13 C12        -4.8850   -4.6853   -1.4163 C.ar      1 <0>        -0.1113
     14 Cl1        -7.0479   -5.3438   -2.9062 Cl        1 <0>        -0.0152
     15 O1         -8.0655   -5.9813   -0.2070 O.3       1 <0>        -0.3084
     16 C13        -9.1130   -5.0166   -0.0876 C.3       1 <0>         0.1147
     17 C14       -10.4463   -5.7189   -0.0980 C.ar      1 <0>        -0.0978
     18 C15       -10.5009   -7.0961   -0.2060 C.ar      1 <0>        -0.0529
     19 C16       -11.7228   -7.7413   -0.2156 C.ar      1 <0>        -0.1458
     20 C17       -12.8937   -7.0083   -0.1171 C.ar      1 <0>         0.1221
     21 C18       -12.8390   -5.6294   -0.0085 C.ar      1 <0>        -0.1435
     22 C19       -11.6147   -4.9856    0.0062 C.ar      1 <0>        -0.0022
     23 Cl2       -11.5448   -3.2568    0.1484 Cl        1 <0>        -0.0517
     24 F1        -14.0886   -7.6386   -0.1274 F         1 <0>        -0.1261
     25 O2         -6.6840   -5.7024    2.1596 O.3       1 <0>        -0.2905
     26 C20        -5.9075   -5.5322    3.3471 C.3       1 <0>         0.0194
     27 H1          1.0039    1.9031    0.0027 H         1 <0>         0.0675
     28 H2         -0.5459    1.8868   -0.8726 H         1 <0>         0.0603
     29 H3         -0.5289    1.8773    0.9072 H         1 <0>         0.0601
     30 H4          0.5123   -0.3556   -0.8948 H         1 <0>         0.0817
     31 H5          0.2319   -0.1594    2.1383 H         1 <0>         0.0614
     32 H6          0.7568   -1.6008    1.2356 H         1 <0>         0.0539
     33 H7          1.7647   -0.1336    1.2338 H         1 <0>         0.0688
     34 H8         -1.9156   -0.2570    0.9504 H         1 <0>         0.0879
     35 H9         -1.9862   -0.1019   -0.8214 H         1 <0>         0.0888
     36 H10        -0.9334   -2.3344   -1.0587 H         1 <0>         0.1345
     37 H11        -0.8628   -2.4894    0.7131 H         1 <0>         0.1346
     38 H12        -3.2403   -2.3100    0.7571 H         1 <0>         0.4275
     39 H13        -2.2946   -4.3061   -1.1770 H         1 <0>         0.1450
     40 H14        -2.2240   -4.4611    0.5948 H         1 <0>         0.1427
     41 H15        -4.2487   -4.7787    1.8963 H         1 <0>         0.1486
     42 H16        -4.4133   -4.4162   -2.3498 H         1 <0>         0.1502
     43 H17        -8.9979   -4.4692    0.8479 H         1 <0>         0.0793
     44 H18        -9.0626   -4.3202   -0.9247 H         1 <0>         0.0777
     45 H19        -9.5880   -7.6680   -0.2832 H         1 <0>         0.1520
     46 H20       -11.7648   -8.8171   -0.3004 H         1 <0>         0.1478
     47 H21       -13.7516   -5.0569    0.0680 H         1 <0>         0.1525
     48 H22        -5.0102   -6.1480    3.2859 H         1 <0>         0.0633
     49 H23        -5.6232   -4.4848    3.4484 H         1 <0>         0.0594
     50 H24        -6.4969   -5.8341    4.2130 H         1 <0>         0.1146
     51 H25        -3.3056   -2.1665   -0.8830 H         1 <0>         0.4290
@<TRIPOS>BOND
     1    1    2 1
     2    1   27 1
     3    1   28 1
     4    1   29 1
     5    2    3 1
     6    2    4 1
     7    2   30 1
     8    3   31 1
     9    3   32 1
    10    3   33 1
    11    4    5 1
    12    4   34 1
    13    4   35 1
    14    5    6 1
    15    5   36 1
    16    5   37 1
    17    6    7 1
    18    6   38 1
    19    6   51 1
    20    7    8 1
    21    7   39 1
    22    7   40 1
    23    8   13 ar
    24    8    9 ar
    25    9   10 ar
    26    9   41 1
    27   10   11 ar
    28   10   25 1
    29   11   12 ar
    30   11   15 1
    31   12   13 ar
    32   12   14 1
    33   13   42 1
    34   15   16 1
    35   16   17 1
    36   16   43 1
    37   16   44 1
    38   17   22 ar
    39   17   18 ar
    40   18   19 ar
    41   18   45 1
    42   19   20 ar
    43   19   46 1
    44   20   21 ar
    45   20   24 1
    46   21   22 ar
    47   21   47 1
    48   22   23 1
    49   25   26 1
    50   26   48 1
    51   26   49 1
    52   26   50 1
