@<TRIPOS>MOLECULE
ZINC15974574
   39    42     0     0     0
SMALL
USER_CHARGES

@<TRIPOS>ATOM
      1 C1         -0.0167    1.3796    0.0096 C.ar      1 <0>        -0.1071
      2 C2          1.1682    2.0942    0.0022 C.ar      1 <0>        -0.1172
      3 C3          2.3774    1.4309   -0.0129 C.ar      1 <0>        -0.0753
      4 C4          2.4040    0.0342   -0.0206 C.ar      1 <0>         0.0687
      5 C5          1.2039   -0.6807   -0.0130 C.ar      1 <0>        -0.1173
      6 C6          0.0021   -0.0041    0.0020 C.ar      1 <0>        -0.1189
      7 N1          3.5999   -0.6304   -0.0360 N.2       1 <0>        -0.2761
      8 N2          3.6210   -1.9202   -0.0431 N.2       1 <0>        -0.1539
      9 C7          4.8078   -2.5798   -0.0584 C.2       1 <0>        -0.1366
     10 C8          6.1000   -1.9933   -0.0619 C.2       1 <0>         0.3998
     11 N3          6.9883   -2.9556   -0.0779 N.2       1 <0>        -0.3272
     12 N4          6.3310   -4.1916   -0.0864 N.am      1 <0>        -0.3356
     13 C9          4.9888   -3.9620   -0.0675 C.2       1 <0>         0.4079
     14 N5          4.1086   -5.0120   -0.0629 N.pl3     1 <0>        -0.5859
     15 C10         4.5593   -6.3062   -0.0775 C.2       1 <0>         0.2024
     16 C11         5.8832   -6.5469   -0.1009 C.2       1 <0>        -0.2324
     17 C12         6.7890   -5.4569   -0.1045 C.2       1 <0>         0.5627
     18 O1          7.9892   -5.6668   -0.1090 O.2       1 <0>        -0.4748
     19 C13         6.4616   -7.9367   -0.1425 C.3       1 <0>        -0.0466
     20 C14         5.4212   -8.9675    0.2905 C.3       1 <0>        -0.1241
     21 C15         4.1397   -8.7261   -0.5167 C.3       1 <0>        -0.1176
     22 C16         3.5280   -7.4035   -0.0590 C.3       1 <0>        -0.0902
     23 N6          6.3763   -0.6277   -0.0506 N.pl3     1 <0>        -0.8096
     24 H1         -0.9606    1.9041    0.0260 H         1 <0>         0.1260
     25 H2          1.1461    3.1740    0.0078 H         1 <0>         0.1311
     26 H3          3.3015    1.9899   -0.0191 H         1 <0>         0.1326
     27 H4          1.2171   -1.7606   -0.0192 H         1 <0>         0.1304
     28 H5         -0.9265   -0.5555    0.0082 H         1 <0>         0.1250
     29 H6          6.7869   -8.1599   -1.1586 H         1 <0>         0.0825
     30 H7          7.3193   -7.9888    0.5280 H         1 <0>         0.0873
     31 H8          5.7954   -9.9722    0.0939 H         1 <0>         0.0815
     32 H9          5.2122   -8.8543    1.3542 H         1 <0>         0.0714
     33 H10         4.3789   -8.6724   -1.5787 H         1 <0>         0.0760
     34 H11         3.4347   -9.5382   -0.3387 H         1 <0>         0.0849
     35 H12         3.1430   -7.5175    0.9543 H         1 <0>         0.1044
     36 H13         2.7082   -7.1371   -0.7261 H         1 <0>         0.0967
     37 H14         5.6492    0.0142   -0.0392 H         1 <0>         0.4259
     38 H15         7.2959   -0.3189   -0.0541 H         1 <0>         0.4090
     39 H16         3.1546   -4.8372   -0.0487 H         1 <0>         0.4401
@<TRIPOS>BOND
     1    1    6 ar
     2    1    2 ar
     3    1   24 1
     4    2    3 ar
     5    2   25 1
     6    3    4 ar
     7    3   26 1
     8    4    5 ar
     9    4    7 1
    10    5    6 ar
    11    5   27 1
    12    6   28 1
    13    7    8 2
    14    8    9 1
    15    9   13 2
    16    9   10 1
    17   10   11 2
    18   10   23 1
    19   11   12 1
    20   12   17 am
    21   12   13 1
    22   13   14 1
    23   14   15 1
    24   14   39 1
    25   15   22 1
    26   15   16 2
    27   16   17 1
    28   16   19 1
    29   17   18 2
    30   19   20 1
    31   19   29 1
    32   19   30 1
    33   20   21 1
    34   20   31 1
    35   20   32 1
    36   21   22 1
    37   21   33 1
    38   21   34 1
    39   22   35 1
    40   22   36 1
    41   23   37 1
    42   23   38 1
