@<TRIPOS>MOLECULE
ZINC39448380
   51    54     0     0     0
SMALL
USER_CHARGES

@<TRIPOS>ATOM
      1 C1         -0.0167    1.3788    0.0096 C.ar      1 <0>        -0.1164
      2 C2          1.1677    2.0877    0.0021 C.ar      1 <0>        -0.0691
      3 C3          2.3836    1.4075   -0.0131 C.ar      1 <0>        -0.0446
      4 C4          2.3966    0.0139   -0.0207 C.ar      1 <0>        -0.0372
      5 C5          1.2065   -0.6846   -0.0130 C.ar      1 <0>        -0.1788
      6 C6          0.0021   -0.0041    0.0020 C.ar      1 <0>        -0.0533
      7 C7          1.2188   -2.1915   -0.0217 C.3       1 <0>         0.5080
      8 F1          1.2354   -2.6653    1.2945 F         1 <0>        -0.1721
      9 F2          0.0740   -2.6635   -0.6728 F         1 <0>        -0.1732
     10 F3          2.3584   -2.6447   -0.6949 F         1 <0>        -0.1735
     11 C8          3.6600    2.1641   -0.0217 C.2       1 <0>         0.0199
     12 C9          3.7571    3.5075   -0.0106 C.2       1 <0>        -0.1532
     13 C10         5.2535    3.7641   -0.0265 C.3       1 <0>        -0.0360
     14 H1          5.5618    4.2993    0.8716 H         1 <0>         0.1552
     15 N1          5.8264    2.4080   -0.0459 N.2       1 <0>        -0.1461
     16 N2          4.8959    1.5993   -0.0361 N.2       1 <0>        -0.1420
     17 C11         5.6550    4.5421   -1.2813 C.3       1 <0>        -0.0582
     18 C12         4.9301    5.8909   -1.3013 C.3       1 <0>        -0.1448
     19 C13         5.3960    6.6962   -2.5162 C.3       1 <0>        -0.0044
     20 N3          6.8445    6.9186   -2.4341 N.4       1 <0>        -0.3832
     21 C14         7.5498    5.6324   -2.4867 C.3       1 <0>        -0.0127
     22 C15         7.1667    4.7862   -1.2707 C.3       1 <0>        -0.1407
     23 C16         7.2743    7.7575   -3.5608 C.3       1 <0>         0.0433
     24 C17         8.7369    8.0885   -3.4114 C.ar      1 <0>        -0.1498
     25 C18         9.1218    9.2195   -2.7158 C.ar      1 <0>        -0.0861
     26 C19        10.4632    9.5232   -2.5781 C.ar      1 <0>        -0.0863
     27 C20        11.4204    8.6954   -3.1365 C.ar      1 <0>        -0.0631
     28 C21        11.0348    7.5639   -3.8325 C.ar      1 <0>        -0.0864
     29 C22         9.6934    7.2581   -3.9652 C.ar      1 <0>        -0.0901
     30 Br1        13.2557    9.1108   -2.9491 Br        1 <0>        -0.0153
     31 H2         -0.9597    1.9050    0.0260 H         1 <0>         0.1448
     32 H3          1.1519    3.1676    0.0077 H         1 <0>         0.1333
     33 H4          3.3362   -0.5184   -0.0328 H         1 <0>         0.1486
     34 H5         -0.9270   -0.5547    0.0079 H         1 <0>         0.1444
     35 H6          2.9572    4.2329    0.0053 H         1 <0>         0.1775
     36 H7          5.3846    3.9685   -2.1678 H         1 <0>         0.0976
     37 H8          3.8547    5.7253   -1.3651 H         1 <0>         0.1168
     38 H9          5.1607    6.4417   -0.3894 H         1 <0>         0.0960
     39 H10         5.1647    6.1447   -3.4275 H         1 <0>         0.1317
     40 H11         4.8817    7.6571   -2.5336 H         1 <0>         0.1364
     41 H12         7.2725    5.1036   -3.3987 H         1 <0>         0.1310
     42 H13         8.6255    5.8079   -2.4824 H         1 <0>         0.1355
     43 H14         7.4438    5.3140   -0.3581 H         1 <0>         0.0936
     44 H15         7.6900    3.8310   -1.3126 H         1 <0>         0.1244
     45 H16         7.1173    7.2189   -4.4954 H         1 <0>         0.1387
     46 H17         6.6923    8.6791   -3.5704 H         1 <0>         0.1407
     47 H18         8.3744    9.8659   -2.2802 H         1 <0>         0.1411
     48 H19        10.7638   10.4070   -2.0350 H         1 <0>         0.1467
     49 H20        11.7818    6.9173   -4.2686 H         1 <0>         0.1471
     50 H21         9.3923    6.3725   -4.5050 H         1 <0>         0.1411
     51 H22         7.0634    7.3858   -1.5669 H         1 <0>         0.4230
@<TRIPOS>BOND
     1    1    6 ar
     2    1    2 ar
     3    1   31 1
     4    2    3 ar
     5    2   32 1
     6    3    4 ar
     7    3   11 1
     8    4    5 ar
     9    4   33 1
    10    5    6 ar
    11    5    7 1
    12    6   34 1
    13    7    8 1
    14    7    9 1
    15    7   10 1
    16   11   16 1
    17   11   12 2
    18   12   13 1
    19   12   35 1
    20   13   14 1
    21   13   15 1
    22   13   17 1
    23   15   16 2
    24   17   22 1
    25   17   18 1
    26   17   36 1
    27   18   19 1
    28   18   37 1
    29   18   38 1
    30   19   20 1
    31   19   39 1
    32   19   40 1
    33   20   21 1
    34   20   23 1
    35   20   51 1
    36   21   22 1
    37   21   41 1
    38   21   42 1
    39   22   43 1
    40   22   44 1
    41   23   24 1
    42   23   45 1
    43   23   46 1
    44   24   29 ar
    45   24   25 ar
    46   25   26 ar
    47   25   47 1
    48   26   27 ar
    49   26   48 1
    50   27   28 ar
    51   27   30 1
    52   28   29 ar
    53   28   49 1
    54   29   50 1
