@<TRIPOS>MOLECULE
ZINC55176630
   35    37     0     0     0
SMALL
USER_CHARGES

@<TRIPOS>ATOM
      1 C1         -0.0184    1.5028    0.0103 C.3       1 <0>        -0.0852
      2 C2          0.0021   -0.0041    0.0020 C.2       1 <0>         0.1656
      3 C3          0.0059   -0.7156   -1.1674 C.2       1 <0>        -0.1990
      4 S1          0.0317   -2.3865   -0.5386 S.3       1 <0>         0.1600
      5 C4          0.0348   -2.0182    1.1035 C.2       1 <0>         0.3173
      6 N1          0.0226   -0.7009    1.1197 N.2       1 <0>        -0.5913
      7 N2          0.0520   -2.8898    2.1787 N.pl3     1 <0>        -0.7960
      8 C5         -0.0082   -0.2338   -2.5646 C.2       1 <0>         0.3334
      9 N3         -0.0085   -1.0087   -3.6596 N.2       1 <0>        -0.5331
     10 C6         -0.0237   -0.2600   -4.7306 C.2       1 <0>         0.3019
     11 N4         -0.0337    1.0288   -4.3464 N.pl3     1 <0>        -0.4787
     12 H1         -0.0459    1.8066   -4.9258 H         1 <0>         0.4411
     13 N5         -0.0285    1.0279   -2.9421 N.2       1 <0>        -0.3018
     14 C7         -0.0287   -0.7561   -6.1536 C.3       1 <0>        -0.0109
     15 C8          0.7833    0.1997   -7.0299 C.3       1 <0>        -0.1195
     16 C9          0.7783   -0.3040   -8.4746 C.3       1 <0>        -0.1173
     17 C10        -0.6617   -0.3673   -8.9876 C.3       1 <0>        -0.1239
     18 C11        -1.4737   -1.3232   -8.1113 C.3       1 <0>        -0.1185
     19 C12        -1.4687   -0.8195   -6.6666 C.3       1 <0>        -0.1106
     20 H2          1.0042    1.8801    0.0026 H         1 <0>         0.0790
     21 H3         -0.5455    1.8639   -0.8728 H         1 <0>         0.0883
     22 H4         -0.5286    1.8543    0.9071 H         1 <0>         0.0753
     23 H5          0.0643   -3.8477    2.0264 H         1 <0>         0.4215
     24 H6          0.0518   -2.5426    3.0845 H         1 <0>         0.4162
     25 H7          0.4152   -1.7509   -6.1931 H         1 <0>         0.1110
     26 H8          0.3395    1.1945   -6.9904 H         1 <0>         0.0635
     27 H9          1.8092    0.2448   -6.6644 H         1 <0>         0.0710
     28 H10         1.3568    0.3770   -9.0988 H         1 <0>         0.0688
     29 H11         1.2221   -1.2988   -8.5140 H         1 <0>         0.0685
     30 H12        -1.1056    0.6274   -8.9481 H         1 <0>         0.0629
     31 H13        -0.6653   -0.7262  -10.0168 H         1 <0>         0.0663
     32 H14        -2.4996   -1.3683   -8.4768 H         1 <0>         0.0686
     33 H15        -1.0299   -2.3180   -8.1508 H         1 <0>         0.0681
     34 H16        -2.0472   -1.5004   -6.0424 H         1 <0>         0.0733
     35 H17        -1.9125    0.1753   -6.6272 H         1 <0>         0.0643
@<TRIPOS>BOND
     1    1    2 1
     2    1   20 1
     3    1   21 1
     4    1   22 1
     5    2    6 1
     6    2    3 2
     7    3    4 1
     8    3    8 1
     9    4    5 1
    10    5    6 2
    11    5    7 1
    12    7   23 1
    13    7   24 1
    14    8   13 2
    15    8    9 1
    16    9   10 2
    17   10   11 1
    18   10   14 1
    19   11   12 1
    20   11   13 1
    21   14   19 1
    22   14   15 1
    23   14   25 1
    24   15   16 1
    25   15   26 1
    26   15   27 1
    27   16   17 1
    28   16   28 1
    29   16   29 1
    30   17   18 1
    31   17   30 1
    32   17   31 1
    33   18   19 1
    34   18   32 1
    35   18   33 1
    36   19   34 1
    37   19   35 1
