@<TRIPOS>MOLECULE
ZINC15003487
   72    76     0     0     0
SMALL
USER_CHARGES

@<TRIPOS>ATOM
      1 C1         -0.0184    1.5028    0.0103 C.3       1 <0>        -0.1201
      2 C2          0.0021   -0.0041    0.0020 C.ar      1 <0>        -0.0859
      3 C3          0.0056   -0.6849   -1.2134 C.ar      1 <0>        -0.0815
      4 C4          0.0239   -2.0453   -1.2558 C.ar      1 <0>        -0.1032
      5 C5          0.0400   -2.7804   -0.0579 C.ar      1 <0>         0.1647
      6 C6          0.0368   -2.0861    1.1766 C.ar      1 <0>        -0.1230
      7 C7          0.0225   -0.6824    1.1827 C.ar      1 <0>        -0.0891
      8 C8          0.0530   -2.8232    2.3774 C.ar      1 <0>        -0.0050
      9 C9          0.0712   -4.1842    2.2991 C.ar      1 <0>        -0.1462
     10 C10         0.0733   -4.8111    1.0474 C.ar      1 <0>         0.3493
     11 N1          0.0591   -4.1178   -0.0707 N.ar      1 <0>        -0.5282
     12 O1          0.0915   -6.1653    0.9858 O.3       1 <0>        -0.3051
     13 C11         0.0929   -6.7556   -0.3156 C.3       1 <0>         0.1109
     14 C12         0.1140   -8.2569   -0.1861 C.ar      1 <0>        -0.0830
     15 C13         0.1226   -8.8428    1.0659 C.ar      1 <0>        -0.0997
     16 C14         0.1419  -10.2197    1.1848 C.ar      1 <0>        -0.1168
     17 C15         0.1527  -11.0119    0.0516 C.ar      1 <0>        -0.1038
     18 C16         0.1441  -10.4274   -1.2006 C.ar      1 <0>        -0.1023
     19 C17         0.1190   -9.0490   -1.3202 C.ar      1 <0>        -0.0291
     20 Cl1         0.1015   -8.3141   -2.8928 Cl        1 <0>        -0.0544
     21 C18         0.0894   -5.0123    3.5580 C.3       1 <0>         0.1084
     22 N2          1.4612   -5.4637    3.8274 N.3       1 <0>        -0.5345
     23 C19         1.9242   -6.3904    2.7865 C.3       1 <0>         0.0492
     24 C20         3.3994   -6.7247    3.0189 C.3       1 <0>        -0.1384
     25 C21         3.5620   -7.3595    4.4027 C.3       1 <0>         0.0241
     26 C22         3.0280   -6.3940    5.4644 C.3       1 <0>        -0.1361
     27 C23         1.5635   -6.0693    5.1612 C.3       1 <0>         0.0565
     28 N3          4.9839   -7.6291    4.6551 N.4       1 <0>        -0.3776
     29 C24         5.4974   -8.5417    3.6265 C.3       1 <0>        -0.0126
     30 C25         6.9969   -8.7620    3.8373 C.3       1 <0>        -0.1450
     31 C26         7.2280   -9.3706    5.2234 C.3       1 <0>        -0.1290
     32 C27         6.6226   -8.4461    6.2835 C.3       1 <0>        -0.1097
     33 H1          7.1363   -7.4849    6.2644 H         1 <0>         0.1014
     34 C28         5.1369   -8.2375    5.9821 C.3       1 <0>        -0.0064
     35 C29         6.7799   -9.0821    7.6661 C.3       1 <0>         0.0840
     36 O2          8.1680   -9.1736    7.9931 O.3       1 <0>        -0.5680
     37 H2          1.0042    1.8801    0.0026 H         1 <0>         0.0750
     38 H3         -0.5455    1.8639   -0.8728 H         1 <0>         0.0716
     39 H4         -0.5286    1.8543    0.9071 H         1 <0>         0.0701
     40 H5         -0.0067   -0.1245   -2.1365 H         1 <0>         0.1337
     41 H6          0.0257   -2.5579   -2.2063 H         1 <0>         0.1371
     42 H7          0.0236   -0.1435    2.1186 H         1 <0>         0.1321
     43 H8          0.0514   -2.3231    3.3346 H         1 <0>         0.1486
     44 H9         -0.8041   -6.4500   -0.8541 H         1 <0>         0.0897
     45 H10         0.9756   -6.4257   -0.8632 H         1 <0>         0.0880
     46 H11         0.1146   -8.2245    1.9514 H         1 <0>         0.1350
     47 H12         0.1490  -10.6770    2.1631 H         1 <0>         0.1283
     48 H13         0.1682  -12.0878    0.1451 H         1 <0>         0.1355
     49 H14         0.1528  -11.0463   -2.0856 H         1 <0>         0.1399
     50 H15        -0.2657   -4.4101    4.3943 H         1 <0>         0.0935
     51 H16        -0.5601   -5.8787    3.4324 H         1 <0>         0.0581
     52 H17         1.3337   -7.3057    2.8264 H         1 <0>         0.0532
     53 H18         1.8070   -5.9251    1.8078 H         1 <0>         0.1076
     54 H19         3.7386   -7.4246    2.2552 H         1 <0>         0.0911
     55 H20         3.9923   -5.8115    2.9654 H         1 <0>         0.0934
     56 H21         3.0005   -8.2928    4.4436 H         1 <0>         0.1339
     57 H22         3.1018   -6.8578    6.4481 H         1 <0>         0.0921
     58 H23         3.6150   -5.4757    5.4495 H         1 <0>         0.0962
     59 H24         1.1844   -5.3709    5.9072 H         1 <0>         0.0977
     60 H25         0.9748   -6.9862    5.1900 H         1 <0>         0.0472
     61 H26         4.9769   -9.4969    3.6964 H         1 <0>         0.1279
     62 H27         5.3293   -8.1086    2.6405 H         1 <0>         0.1325
     63 H28         7.3759   -9.4412    3.0737 H         1 <0>         0.1134
     64 H29         7.5183   -7.8074    3.7674 H         1 <0>         0.0879
     65 H30         6.7495  -10.3486    5.2765 H         1 <0>         0.0799
     66 H31         8.2982   -9.4771    5.4009 H         1 <0>         0.1009
     67 H32         4.7027   -7.5799    6.7351 H         1 <0>         0.1336
     68 H33         4.6242   -9.1992    6.0017 H         1 <0>         0.1298
     69 H34         6.2714   -8.4673    8.4088 H         1 <0>         0.0564
     70 H35         6.3418  -10.0801    7.6590 H         1 <0>         0.0566
     71 H36         8.3431   -9.5682    8.8584 H         1 <0>         0.3961
     72 H37         5.5005   -6.7631    4.6217 H         1 <0>         0.4217
@<TRIPOS>BOND
     1    1    2 1
     2    1   37 1
     3    1   38 1
     4    1   39 1
     5    2    7 ar
     6    2    3 ar
     7    3    4 ar
     8    3   40 1
     9    4    5 ar
    10    4   41 1
    11    5   11 ar
    12    5    6 ar
    13    6    7 ar
    14    6    8 ar
    15    7   42 1
    16    8    9 ar
    17    8   43 1
    18    9   10 ar
    19    9   21 1
    20   10   11 ar
    21   10   12 1
    22   12   13 1
    23   13   14 1
    24   13   44 1
    25   13   45 1
    26   14   19 ar
    27   14   15 ar
    28   15   16 ar
    29   15   46 1
    30   16   17 ar
    31   16   47 1
    32   17   18 ar
    33   17   48 1
    34   18   19 ar
    35   18   49 1
    36   19   20 1
    37   21   22 1
    38   21   50 1
    39   21   51 1
    40   22   27 1
    41   22   23 1
    42   23   24 1
    43   23   52 1
    44   23   53 1
    45   24   25 1
    46   24   54 1
    47   24   55 1
    48   25   26 1
    49   25   28 1
    50   25   56 1
    51   26   27 1
    52   26   57 1
    53   26   58 1
    54   27   59 1
    55   27   60 1
    56   28   34 1
    57   28   29 1
    58   28   72 1
    59   29   30 1
    60   29   61 1
    61   29   62 1
    62   30   31 1
    63   30   63 1
    64   30   64 1
    65   31   32 1
    66   31   65 1
    67   31   66 1
    68   32   33 1
    69   32   34 1
    70   32   35 1
    71   34   67 1
    72   34   68 1
    73   35   36 1
    74   35   69 1
    75   35   70 1
    76   36   71 1
