@<TRIPOS>MOLECULE
ZINC05823415
   47    50     0     0     0
SMALL
USER_CHARGES

@<TRIPOS>ATOM
      1 C1         -0.0184    1.5028    0.0103 C.3       1 <0>        -0.0779
      2 C2          0.0021   -0.0041    0.0020 C.2       1 <0>        -0.0027
      3 C3         -1.0805   -0.7968    0.0027 C.2       1 <0>        -0.1906
      4 C4         -0.5714   -2.1760   -0.0071 C.2       1 <0>        -0.2452
      5 C5          0.7883   -2.0655   -0.0128 C.2       1 <0>         0.0946
      6 O1          1.1060   -0.7673   -0.0131 O.3       1 <0>        -0.1700
      7 C6          1.7659   -3.2123   -0.0236 C.3       1 <0>        -0.0867
      8 C7         -1.3642   -3.4184   -0.0097 C.2       1 <0>         0.5976
      9 O2         -0.8036   -4.4975   -0.0178 O.2       1 <0>        -0.5396
     10 N1         -2.7107   -3.3585   -0.0032 N.am      1 <0>        -0.5182
     11 N2         -3.4644   -4.5395   -0.0057 N.am      1 <0>        -0.5184
     12 C8         -4.8108   -4.4796    0.0008 C.2       1 <0>         0.5263
     13 O3         -5.3699   -3.4034    0.0089 O.2       1 <0>        -0.5307
     14 C9         -5.6216   -5.7499   -0.0019 C.3       1 <0>        -0.0546
     15 C10        -5.2822   -6.5742    1.2417 C.3       1 <0>        -0.1089
     16 C11        -6.1053   -7.8639    1.2389 C.3       1 <0>        -0.0812
     17 H1         -5.8635   -8.4511    2.1248 H         1 <0>         0.0880
     18 C12        -7.5956   -7.5178    1.2476 C.3       1 <0>        -0.1152
     19 C13        -7.9350   -6.6935    0.0041 C.3       1 <0>        -0.0841
     20 H2         -8.9967   -6.4469    0.0102 H         1 <0>         0.0877
     21 C14        -7.1119   -5.4038    0.0068 C.3       1 <0>        -0.0914
     22 C15        -7.6072   -7.5051   -1.2509 C.3       1 <0>        -0.1134
     23 C16        -6.1169   -7.8512   -1.2595 C.3       1 <0>         0.0386
     24 C17        -5.7775   -8.6754   -0.0160 C.3       1 <0>        -0.1138
     25 C18        -5.2938   -6.5615   -1.2568 C.3       1 <0>        -0.1077
     26 Cl1        -5.7306   -8.8076   -2.7383 Cl        1 <0>        -0.1764
     27 H3          1.0042    1.8801    0.0026 H         1 <0>         0.0795
     28 H4         -0.5455    1.8639   -0.8728 H         1 <0>         0.0895
     29 H5         -0.5286    1.8543    0.9071 H         1 <0>         0.0896
     30 H6         -2.1146   -0.4854    0.0096 H         1 <0>         0.1585
     31 H7          1.9969   -3.4833   -1.0538 H         1 <0>         0.0924
     32 H8          2.6813   -2.9142    0.4876 H         1 <0>         0.0817
     33 H9          1.3267   -4.0690    0.4877 H         1 <0>         0.1100
     34 H10        -3.1578   -2.4977    0.0032 H         1 <0>         0.4328
     35 H11        -3.0172   -5.4002   -0.0121 H         1 <0>         0.4320
     36 H12        -4.2205   -6.8207    1.2355 H         1 <0>         0.0723
     37 H13        -5.5157   -5.9960    2.1357 H         1 <0>         0.0783
     38 H14        -8.1820   -8.4366    1.2456 H         1 <0>         0.0711
     39 H15        -7.8292   -6.9396    2.1416 H         1 <0>         0.0712
     40 H16        -7.3454   -4.8256    0.9008 H         1 <0>         0.0787
     41 H17        -7.3536   -4.8166   -0.8791 H         1 <0>         0.0764
     42 H18        -8.1936   -8.4239   -1.2528 H         1 <0>         0.0796
     43 H19        -7.8490   -6.9179   -2.1368 H         1 <0>         0.0773
     44 H20        -4.7158   -8.9220   -0.0221 H         1 <0>         0.0779
     45 H21        -6.3639   -9.5943   -0.0179 H         1 <0>         0.0807
     46 H22        -5.5355   -5.9743   -2.1427 H         1 <0>         0.0841
     47 H23        -4.2320   -6.8081   -1.2629 H         1 <0>         0.0803
@<TRIPOS>BOND
     1    1    2 1
     2    1   27 1
     3    1   28 1
     4    1   29 1
     5    2    6 1
     6    2    3 2
     7    3    4 1
     8    3   30 1
     9    4    5 2
    10    4    8 1
    11    5    6 1
    12    5    7 1
    13    7   31 1
    14    7   32 1
    15    7   33 1
    16    8    9 2
    17    8   10 am
    18   10   11 1
    19   10   34 1
    20   11   12 am
    21   11   35 1
    22   12   13 2
    23   12   14 1
    24   14   21 1
    25   14   25 1
    26   14   15 1
    27   15   16 1
    28   15   36 1
    29   15   37 1
    30   16   17 1
    31   16   24 1
    32   16   18 1
    33   18   19 1
    34   18   38 1
    35   18   39 1
    36   19   20 1
    37   19   21 1
    38   19   22 1
    39   21   40 1
    40   21   41 1
    41   22   23 1
    42   22   42 1
    43   22   43 1
    44   23   24 1
    45   23   25 1
    46   23   26 1
    47   24   44 1
    48   24   45 1
    49   25   46 1
    50   25   47 1
