@<TRIPOS>MOLECULE
ZINC37308910
   35    37     0     0     0
SMALL
USER_CHARGES

@<TRIPOS>ATOM
      1 C1         -0.0167    1.3786    0.0096 C.ar      1 <0>        -0.1086
      2 C2          1.1697    2.0890    0.0021 C.ar      1 <0>        -0.0940
      3 C3          2.3773    1.4190   -0.0134 C.ar      1 <0>        -0.1061
      4 C4          2.3994    0.0308   -0.0211 C.ar      1 <0>         0.1259
      5 C5          1.2066   -0.6797   -0.0130 C.ar      1 <0>        -0.1299
      6 C6          0.0021   -0.0041    0.0020 C.ar      1 <0>        -0.0922
      7 N1          3.6236   -0.6521   -0.0373 N.pl3     1 <0>        -0.2927
      8 C7          3.7859   -1.9945   -0.0516 C.2       1 <0>         0.1146
      9 C8          5.1150   -2.2483   -0.0650 C.2       1 <0>        -0.3035
     10 C9          5.7880   -1.0216   -0.0587 C.2       1 <0>         0.0577
     11 N2          4.8953   -0.0646   -0.0477 N.2       1 <0>        -0.2565
     12 C10         5.7570   -3.6116   -0.0829 C.3       1 <0>         0.1844
     13 H1          5.0411   -4.3550    0.2676 H         1 <0>         0.1541
     14 C11         6.1826   -3.9480   -1.4889 C.ar      1 <0>        -0.1336
     15 C12         7.3598   -3.4307   -1.9972 C.ar      1 <0>        -0.1030
     16 C13         7.7504   -3.7390   -3.2867 C.ar      1 <0>        -0.0967
     17 C14         6.9642   -4.5646   -4.0686 C.ar      1 <0>        -0.0604
     18 C15         5.7869   -5.0820   -3.5606 C.ar      1 <0>        -0.0943
     19 C16         5.3990   -4.7779   -2.2682 C.ar      1 <0>        -0.0557
     20 I1          4.5947   -6.3326   -4.7454 I         1 <0>        -0.0088
     21 N3          6.9328   -3.6108    0.7976 N.4       1 <0>        -0.6334
     22 H2         -0.9597    1.9047    0.0260 H         1 <0>         0.1375
     23 H3          1.1519    3.1688    0.0080 H         1 <0>         0.1400
     24 H4          3.3036    1.9744   -0.0200 H         1 <0>         0.1402
     25 H5          1.2207   -1.7596   -0.0193 H         1 <0>         0.1308
     26 H6         -0.9261   -0.5562    0.0082 H         1 <0>         0.1405
     27 H7          2.9966   -2.7316   -0.0518 H         1 <0>         0.1894
     28 H8          6.8596   -0.8875   -0.0659 H         1 <0>         0.1897
     29 H9          7.9740   -2.7854   -1.3867 H         1 <0>         0.1260
     30 H10         8.6698   -3.3345   -3.6836 H         1 <0>         0.1446
     31 H11         7.2693   -4.8051   -5.0763 H         1 <0>         0.1417
     32 H12         4.4819   -5.1857   -1.8694 H         1 <0>         0.1394
     33 H13         6.6479   -3.3856    1.7390 H         1 <0>         0.4418
     34 H14         7.3627   -4.5236    0.7856 H         1 <0>         0.4410
     35 H15         7.5956   -2.9226    0.4731 H         1 <0>         0.4299
@<TRIPOS>BOND
     1    1    6 ar
     2    1    2 ar
     3    1   22 1
     4    2    3 ar
     5    2   23 1
     6    3    4 ar
     7    3   24 1
     8    4    5 ar
     9    4    7 1
    10    5    6 ar
    11    5   25 1
    12    6   26 1
    13    7   11 1
    14    7    8 1
    15    8    9 2
    16    8   27 1
    17    9   10 1
    18    9   12 1
    19   10   11 2
    20   10   28 1
    21   12   13 1
    22   12   14 1
    23   12   21 1
    24   14   19 ar
    25   14   15 ar
    26   15   16 ar
    27   15   29 1
    28   16   17 ar
    29   16   30 1
    30   17   18 ar
    31   17   31 1
    32   18   19 ar
    33   18   20 1
    34   19   32 1
    35   21   33 1
    36   21   34 1
    37   21   35 1
