@<TRIPOS>MOLECULE
ZINC63473002
   67    73     0     0     0
SMALL
USER_CHARGES

@<TRIPOS>ATOM
      1 C1         -0.0184    1.5028    0.0103 C.3       1 <0>        -0.1220
      2 C2          0.0021   -0.0041    0.0020 C.ar      1 <0>        -0.0845
      3 C3          0.0057   -0.6850   -1.1980 C.ar      1 <0>        -0.0591
      4 C4          0.0247   -2.0684   -1.2160 C.ar      1 <0>        -0.0555
      5 C5          0.0402   -2.7724   -0.0233 C.ar      1 <0>        -0.0554
      6 C6          0.0370   -2.0961    1.1757 C.ar      1 <0>        -0.1758
      7 C7          0.0230   -0.7044    1.2054 C.ar      1 <0>         0.1717
      8 N1          0.0281   -0.2497    2.5265 N.am      1 <0>        -0.6580
      9 C8          0.0504   -1.2642    3.4126 C.2       1 <0>         0.5453
     10 O1          0.0584   -1.1693    4.6218 O.2       1 <0>        -0.4398
     11 C9          0.0516   -2.5373    2.6118 C.3       1 <0>         0.1313
     12 C10        -1.1564   -3.4229    2.9404 C.3       1 <0>        -0.1082
     13 H1         -2.0012   -3.2438    2.2753 H         1 <0>         0.1506
     14 C11        -0.6120   -4.8758    2.8471 C.3       1 <0>        -0.1226
     15 H2         -1.1726   -5.4927    2.1447 H         1 <0>         0.1535
     16 C12         0.8702   -4.7192    2.4469 C.3       1 <0>         0.0820
     17 H3          0.9831   -4.8120    1.3668 H         1 <0>         0.0931
     18 N2          1.2436   -3.3510    2.9149 N.3       1 <0>        -0.6242
     19 C13         1.7279   -5.7647    3.1625 C.3       1 <0>        -0.0853
     20 C14         3.1480   -5.6744    2.6661 C.2       1 <0>         0.0673
     21 C15         4.1652   -4.9862    3.2327 C.ar      1 <0>        -0.1662
     22 C16         4.2505   -4.1470    4.4339 C.ar      1 <0>         0.0018
     23 C17         5.4344   -3.5759    4.7524 C.ar      1 <0>        -0.1582
     24 C18         6.5790   -3.7646    3.9658 C.ar      1 <0>         0.0585
     25 C19         6.5791   -4.5216    2.8481 C.ar      1 <0>        -0.2145
     26 C20         5.3883   -5.1701    2.4192 C.ar      1 <0>         0.3268
     27 N3          5.1370   -5.9420    1.3898 N.pl3     1 <0>        -0.5883
     28 C21         3.7258   -6.3403    1.4373 C.3       1 <0>         0.0598
     29 C22        -0.7102   -5.3778    4.2694 C.2       1 <0>         0.5434
     30 O2         -0.3770   -6.4803    4.6477 O.2       1 <0>        -0.4720
     31 N4         -1.2213   -4.4156    5.0461 N.am      1 <0>        -0.5591
     32 C23        -1.5199   -3.2650    4.3999 C.2       1 <0>         0.5377
     33 O3         -1.9970   -2.2685    4.8989 O.2       1 <0>        -0.4352
     34 C24        -1.4469   -4.5934    6.4827 C.3       1 <0>         0.1328
     35 C25        -0.1174   -4.9041    7.1732 C.3       1 <0>        -0.1264
     36 C26        -0.3531   -5.0898    8.6734 C.3       1 <0>        -0.1163
     37 C27        -1.3270   -6.2485    8.8971 C.3       1 <0>        -0.1230
     38 C28        -2.6565   -5.9378    8.2067 C.3       1 <0>        -0.1164
     39 C29        -2.4208   -5.7521    6.7064 C.3       1 <0>        -0.1328
     40 Cl1         0.0285   -2.9193   -2.7291 Cl        1 <0>        -0.0495
     41 H4          1.0042    1.8801    0.0026 H         1 <0>         0.0806
     42 H5         -0.5455    1.8639   -0.8728 H         1 <0>         0.0824
     43 H6         -0.5286    1.8543    0.9071 H         1 <0>         0.0694
     44 H7         -0.0061   -0.1356   -2.1277 H         1 <0>         0.1491
     45 H8          0.0551   -3.8522   -0.0340 H         1 <0>         0.1365
     46 H9          0.0173    0.6874    2.7766 H         1 <0>         0.4233
     47 H10         2.0508   -3.0103    2.4144 H         1 <0>         0.3546
     48 H11         1.7059   -5.5794    4.2364 H         1 <0>         0.1223
     49 H12         1.3339   -6.7600    2.9573 H         1 <0>         0.1333
     50 H13         3.3807   -3.9876    5.0540 H         1 <0>         0.1620
     51 H14         5.4994   -2.9580    5.6358 H         1 <0>         0.1562
     52 H15         7.4986   -3.2843    4.2660 H         1 <0>         0.1594
     53 H16         7.4883   -4.6351    2.2764 H         1 <0>         0.1591
     54 H17         3.6417   -7.4237    1.5225 H         1 <0>         0.1752
     55 H18         3.2089   -5.9919    0.5431 H         1 <0>         0.1705
     56 H19        -1.8682   -3.6790    6.9002 H         1 <0>         0.1058
     57 H20         0.3039   -5.8186    6.7556 H         1 <0>         0.0779
     58 H21         0.5764   -4.0787    7.0138 H         1 <0>         0.0662
     59 H22         0.5941   -5.3112    9.1654 H         1 <0>         0.0695
     60 H23        -0.7744   -4.1753    9.0910 H         1 <0>         0.0664
     61 H24        -0.9057   -7.1630    8.4796 H         1 <0>         0.0649
     62 H25        -1.4949   -6.3808    9.9660 H         1 <0>         0.0682
     63 H26        -3.3503   -6.7632    8.3660 H         1 <0>         0.0717
     64 H27        -3.0777   -5.0233    8.6242 H         1 <0>         0.0664
     65 H28        -3.3679   -5.5308    6.2144 H         1 <0>         0.0655
     66 H29        -1.9995   -6.6666    6.2888 H         1 <0>         0.0814
     67 H30         5.7779   -6.2084    0.7122 H         1 <0>         0.4550
@<TRIPOS>BOND
     1    1    2 1
     2    1   41 1
     3    1   42 1
     4    1   43 1
     5    2    7 ar
     6    2    3 ar
     7    3    4 ar
     8    3   44 1
     9    4    5 ar
    10    4   40 1
    11    5    6 ar
    12    5   45 1
    13    6   11 1
    14    6    7 ar
    15    7    8 1
    16    8    9 am
    17    8   46 1
    18    9   10 2
    19    9   11 1
    20   11   18 1
    21   11   12 1
    22   12   13 1
    23   12   32 1
    24   12   14 1
    25   14   15 1
    26   14   16 1
    27   14   29 1
    28   16   17 1
    29   16   18 1
    30   16   19 1
    31   18   47 1
    32   19   20 1
    33   19   48 1
    34   19   49 1
    35   20   28 1
    36   20   21 2
    37   21   26 ar
    38   21   22 ar
    39   22   23 ar
    40   22   50 1
    41   23   24 ar
    42   23   51 1
    43   24   25 ar
    44   24   52 1
    45   25   26 ar
    46   25   53 1
    47   26   27 2
    48   27   28 1
    49   27   67 1
    50   28   54 1
    51   28   55 1
    52   29   30 2
    53   29   31 am
    54   31   32 am
    55   31   34 1
    56   32   33 2
    57   34   39 1
    58   34   35 1
    59   34   56 1
    60   35   36 1
    61   35   57 1
    62   35   58 1
    63   36   37 1
    64   36   59 1
    65   36   60 1
    66   37   38 1
    67   37   61 1
    68   37   62 1
    69   38   39 1
    70   38   63 1
    71   38   64 1
    72   39   65 1
    73   39   66 1
