@<TRIPOS>MOLECULE
ZINC50360486
   37    38     0     0     0
SMALL
USER_CHARGES

@<TRIPOS>ATOM
      1 C1         -0.0157    1.3729    0.0181 C.ar      1 <0>        -0.1183
      2 C2          1.1709    2.0900    0.0041 C.ar      1 <0>        -0.0626
      3 C3          2.3835    1.4338   -0.0217 C.ar      1 <0>        -0.1308
      4 C4          2.4231    0.0439   -0.0334 C.ar      1 <0>        -0.0611
      5 C5          1.2230   -0.6850   -0.0187 C.ar      1 <0>        -0.1172
      6 C6          0.0028   -0.0043    0.0069 C.ar      1 <0>        -0.0630
      7 C7          1.2500   -2.1586   -0.0313 C.2       1 <0>         0.5621
      8 O1          2.3140   -2.7471   -0.0544 O.2       1 <0>        -0.5084
      9 N1          0.0955   -2.8539   -0.0172 N.am      1 <0>        -0.7099
     10 C8          0.1224   -4.3186   -0.0297 C.3       1 <0>         0.1019
     11 C9         -1.2887   -4.8471   -0.0098 C.2       1 <0>         0.5119
     12 O2         -2.2248   -4.0762    0.0126 O.2       1 <0>        -0.5127
     13 N2         -1.5106   -6.1765   -0.0169 N.am      1 <0>        -0.6660
     14 C10        -2.8153   -6.6686    0.0991 C.ar      1 <0>         0.1685
     15 C11        -3.0554   -7.8458    0.7963 C.ar      1 <0>        -0.1516
     16 C12        -4.3437   -8.3299    0.9102 C.ar      1 <0>        -0.0702
     17 C13        -5.3956   -7.6446    0.3308 C.ar      1 <0>        -0.1653
     18 C14        -5.1608   -6.4706   -0.3652 C.ar      1 <0>         0.1186
     19 C15        -3.8726   -5.9783   -0.4774 C.ar      1 <0>        -0.1580
     20 F1         -6.1904   -5.8033   -0.9307 F         1 <0>        -0.1342
     21 S1          3.9706   -0.7980   -0.0669 S.3       1 <0>         0.0908
     22 C16         5.1972    0.5385   -0.0776 C.3       1 <0>         0.3955
     23 F2          5.0465    1.3189    1.0736 F         1 <0>        -0.1727
     24 F3          6.4840   -0.0097   -0.1043 F         1 <0>        -0.1508
     25 F4          5.0069    1.3370   -1.2105 F         1 <0>        -0.1727
     26 H1         -0.9596    1.8971    0.0424 H         1 <0>         0.1405
     27 H2          1.1453    3.1697    0.0130 H         1 <0>         0.1399
     28 H3          3.3032    1.9998   -0.0332 H         1 <0>         0.1339
     29 H4         -0.9247   -0.5574    0.0183 H         1 <0>         0.1389
     30 H5         -0.7531   -2.3846    0.0012 H         1 <0>         0.4149
     31 H6          0.6275   -4.6651   -0.9314 H         1 <0>         0.1110
     32 H7          0.6580   -4.6797    0.8483 H         1 <0>         0.1114
     33 H8         -0.7659   -6.7920   -0.1025 H         1 <0>         0.4197
     34 H9         -2.2347   -8.3826    1.2488 H         1 <0>         0.1355
     35 H10        -4.5299   -9.2452    1.4524 H         1 <0>         0.1402
     36 H11        -6.4021   -8.0258    0.4209 H         1 <0>         0.1388
     37 H12        -3.6894   -5.0607   -1.0166 H         1 <0>         0.1515
@<TRIPOS>BOND
     1    1    6 ar
     2    1    2 ar
     3    1   26 1
     4    2    3 ar
     5    2   27 1
     6    3    4 ar
     7    3   28 1
     8    4    5 ar
     9    4   21 1
    10    5    6 ar
    11    5    7 1
    12    6   29 1
    13    7    8 2
    14    7    9 am
    15    9   10 1
    16    9   30 1
    17   10   11 1
    18   10   31 1
    19   10   32 1
    20   11   12 2
    21   11   13 am
    22   13   14 1
    23   13   33 1
    24   14   19 ar
    25   14   15 ar
    26   15   16 ar
    27   15   34 1
    28   16   17 ar
    29   16   35 1
    30   17   18 ar
    31   17   36 1
    32   18   19 ar
    33   18   20 1
    34   19   37 1
    35   21   22 1
    36   22   23 1
    37   22   24 1
    38   22   25 1
