@<TRIPOS>MOLECULE
ZINC35222389
   26    27     0     0     0
SMALL
USER_CHARGES

@<TRIPOS>ATOM
      1 C1          0.0040    1.3788    0.1725 C.ar      1 <0>        -0.0975
      2 C2          1.1778    2.0861   -0.0140 C.ar      1 <0>        -0.0872
      3 C3          2.3710    1.4137   -0.2031 C.ar      1 <0>        -0.1616
      4 C4          2.3943    0.0326   -0.2059 C.ar      1 <0>        -0.0728
      5 C5          1.2176   -0.6806   -0.0185 C.ar      1 <0>         0.1481
      6 C6          0.0204   -0.0020    0.1707 C.ar      1 <0>        -0.1132
      7 N1          1.2376   -2.0790   -0.0212 N.am      1 <0>        -0.6692
      8 C7          2.3111   -2.7386    0.4575 C.2       1 <0>         0.5776
      9 O1          3.2207   -2.1221    0.9794 O.2       1 <0>        -0.5087
     10 C8          2.3828   -4.2044    0.3488 C.2       1 <0>        -0.1877
     11 C9          3.5135   -4.9450    0.8548 C.2       1 <0>        -0.0548
     12 C10         3.4565   -6.2830    0.6934 C.2       1 <0>        -0.2164
     13 S1          1.8969   -6.5240   -0.1293 S.3       1 <0>         0.2721
     14 C11         1.3719   -4.9340   -0.2351 C.2       1 <0>        -0.2033
     15 Br1         4.7249   -7.5854    1.2138 Br        1 <0>         0.0496
     16 C12         3.6475    2.1884   -0.4069 C.3       1 <0>         0.5091
     17 F1          3.3726    3.5595   -0.3645 F         1 <0>        -0.1757
     18 F2          4.5568    1.8636    0.6054 F         1 <0>        -0.1722
     19 F3          4.1980    1.8614   -1.6508 F         1 <0>        -0.1757
     20 H1         -0.9257    1.9070    0.3241 H         1 <0>         0.1421
     21 H2          1.1623    3.1660   -0.0122 H         1 <0>         0.1421
     22 H3          3.3266   -0.4921   -0.3540 H         1 <0>         0.1461
     23 H4         -0.8965   -0.5537    0.3164 H         1 <0>         0.1371
     24 H5          0.4790   -2.5743   -0.3677 H         1 <0>         0.4126
     25 H6          4.3518   -4.4590    1.3318 H         1 <0>         0.1615
     26 H7          0.4517   -4.5665   -0.6649 H         1 <0>         0.1978
@<TRIPOS>BOND
     1    1    6 ar
     2    1    2 ar
     3    1   20 1
     4    2    3 ar
     5    2   21 1
     6    3    4 ar
     7    3   16 1
     8    4    5 ar
     9    4   22 1
    10    5    6 ar
    11    5    7 1
    12    6   23 1
    13    7    8 am
    14    7   24 1
    15    8    9 2
    16    8   10 1
    17   10   14 2
    18   10   11 1
    19   11   12 2
    20   11   25 1
    21   12   13 1
    22   12   15 1
    23   13   14 1
    24   14   26 1
    25   16   17 1
    26   16   18 1
    27   16   19 1
