@<TRIPOS>MOLECULE
ZINC59100717
   62    64     0     0     0
SMALL
USER_CHARGES

@<TRIPOS>ATOM
      1 C1          1.7570    0.9119   -0.1934 C.3       1 <0>        -0.1161
      2 C2          0.8314   -0.2730   -0.0911 C.ar      1 <0>        -0.0836
      3 C3          0.0703   -0.6574   -1.1872 C.ar      1 <0>         0.1161
      4 C4         -0.7811   -1.7501   -1.0891 C.ar      1 <0>        -0.0545
      5 C5         -0.8689   -2.4517    0.0976 C.ar      1 <0>        -0.1005
      6 C6         -0.1107   -2.0672    1.1877 C.ar      1 <0>        -0.0883
      7 C7          0.7433   -0.9820    1.0920 C.ar      1 <0>        -0.0348
      8 Cl1         1.6994   -0.5072    2.4610 Cl        1 <0>        -0.0541
      9 N1          0.1606    0.0550   -2.3877 N.pl3     1 <0>        -0.6364
     10 C8          0.3377   -0.6033   -3.5503 C.2       1 <0>         0.5465
     11 S1          0.3199   -2.3150   -3.5761 S.2       1 <0>        -0.5626
     12 N2          0.5288    0.0859   -4.6927 N.pl3     1 <0>        -0.5583
     13 C9          0.6105   -0.6241   -5.9716 C.3       1 <0>         0.1508
     14 C10        -0.7677   -0.7419   -6.5696 C.ar      1 <0>        -0.1344
     15 C11        -1.5592   -1.8352   -6.2706 C.ar      1 <0>        -0.0579
     16 C12        -2.8234   -1.9442   -6.8181 C.ar      1 <0>        -0.1548
     17 C13        -3.2973   -0.9577   -7.6663 C.ar      1 <0>         0.1155
     18 C14        -2.5037    0.1369   -7.9650 C.ar      1 <0>        -0.1619
     19 C15        -1.2419    0.2463   -7.4121 C.ar      1 <0>        -0.0810
     20 F1         -4.5329   -1.0633   -8.2024 F         1 <0>        -0.1335
     21 C16         0.6553    1.5484   -4.6554 C.3       1 <0>         0.1172
     22 C17         1.7522    1.9326   -3.6607 C.3       1 <0>        -0.1714
     23 C18         1.8877    3.4538   -3.6015 C.3       1 <0>         0.0602
     24 N3          0.6194    4.1064   -3.3130 N.4       1 <0>        -0.4954
     25 C19        -0.5493    3.6726   -4.0617 C.3       1 <0>         0.0596
     26 C20        -0.6621    2.1560   -4.1750 C.3       1 <0>        -0.1604
     27 C21        -1.8003    4.1697   -3.2989 C.3       1 <0>        -0.1828
     28 C22        -0.5957    4.3050   -5.4552 C.3       1 <0>        -0.1739
     29 C23         2.5255    3.9782   -4.8875 C.3       1 <0>        -0.1740
     30 C24         2.8565    3.7827   -2.4421 C.3       1 <0>        -0.1847
     31 H1          2.7378    0.5786   -0.5326 H         1 <0>         0.0829
     32 H2          1.3508    1.6298   -0.9060 H         1 <0>         0.0430
     33 H3          1.8519    1.3844    0.7843 H         1 <0>         0.0861
     34 H4         -1.3744   -2.0510   -1.9399 H         1 <0>         0.1497
     35 H5         -1.5310   -3.3015    0.1739 H         1 <0>         0.1431
     36 H6         -0.1818   -2.6170    2.1145 H         1 <0>         0.1413
     37 H7          0.0959    1.0229   -2.3834 H         1 <0>         0.3955
     38 H8          1.2564   -0.0711   -6.6535 H         1 <0>         0.0998
     39 H9          1.0222   -1.6201   -5.8086 H         1 <0>         0.1323
     40 H10        -1.1892   -2.6048   -5.6093 H         1 <0>         0.1562
     41 H11        -3.4414   -2.7986   -6.5847 H         1 <0>         0.1404
     42 H12        -2.8722    0.9068   -8.6267 H         1 <0>         0.1370
     43 H13        -0.6244    1.1022   -7.6414 H         1 <0>         0.1257
     44 H14         0.8993    1.9075   -5.6512 H         1 <0>         0.1279
     45 H15         1.4962    1.5508   -2.6712 H         1 <0>         0.0998
     46 H16         2.7002    1.4955   -3.9792 H         1 <0>         0.1285
     47 H17         0.4214    3.9958   -2.3152 H         1 <0>         0.4240
     48 H18        -1.4565    1.9019   -4.8816 H         1 <0>         0.1291
     49 H19        -0.9180    1.7369   -3.1982 H         1 <0>         0.0891
     50 H20        -1.7747    5.2572   -3.2286 H         1 <0>         0.0901
     51 H21        -2.6985    3.8613   -3.8338 H         1 <0>         0.1102
     52 H22        -1.8090    3.7410   -2.2968 H         1 <0>         0.0813
     53 H23         0.2355    3.9299   -6.0523 H         1 <0>         0.0837
     54 H24        -1.5371    4.0468   -5.9402 H         1 <0>         0.1086
     55 H25        -0.5185    5.3885   -5.3652 H         1 <0>         0.0879
     56 H26         1.8693    3.7654   -5.7314 H         1 <0>         0.0831
     57 H27         2.6752    5.0548   -4.8060 H         1 <0>         0.0887
     58 H28         3.4869    3.4884   -5.0422 H         1 <0>         0.1088
     59 H29         3.8241    3.3192   -2.6346 H         1 <0>         0.1114
     60 H30         2.9798    4.8631   -2.3671 H         1 <0>         0.0902
     61 H31         2.4487    3.3978   -1.5075 H         1 <0>         0.0822
     62 H32         0.7368    5.1129   -3.4529 H         1 <0>         0.4319
@<TRIPOS>BOND
     1    1    2 1
     2    1   31 1
     3    1   32 1
     4    1   33 1
     5    2    7 ar
     6    2    3 ar
     7    3    4 ar
     8    3    9 1
     9    4    5 ar
    10    4   34 1
    11    5    6 ar
    12    5   35 1
    13    6    7 ar
    14    6   36 1
    15    7    8 1
    16    9   10 1
    17    9   37 1
    18   10   11 2
    19   10   12 1
    20   12   13 1
    21   12   21 1
    22   13   14 1
    23   13   38 1
    24   13   39 1
    25   14   19 ar
    26   14   15 ar
    27   15   16 ar
    28   15   40 1
    29   16   17 ar
    30   16   41 1
    31   17   18 ar
    32   17   20 1
    33   18   19 ar
    34   18   42 1
    35   19   43 1
    36   21   26 1
    37   21   22 1
    38   21   44 1
    39   22   23 1
    40   22   45 1
    41   22   46 1
    42   23   24 1
    43   23   29 1
    44   23   30 1
    45   24   25 1
    46   24   47 1
    47   24   62 1
    48   25   26 1
    49   25   27 1
    50   25   28 1
    51   26   48 1
    52   26   49 1
    53   27   50 1
    54   27   51 1
    55   27   52 1
    56   28   53 1
    57   28   54 1
    58   28   55 1
    59   29   56 1
    60   29   57 1
    61   29   58 1
    62   30   59 1
    63   30   60 1
    64   30   61 1
