@<TRIPOS>MOLECULE
ZINC02954044
   63    67     0     0     0
SMALL
USER_CHARGES
(2Z)-5-(hydroxymethyl)-8-methyl-2-(4-phenoxyphenyl)imino-N-(p-tolyl)pyrano[6,5-c]pyridine-3-carboxamide
@<TRIPOS>ATOM
      1 C1          2.4402    3.9429    0.0538 C.3       1 <0>        -0.1249
      2 C2          1.1432    3.1756    0.0377 C.ar      1 <0>        -0.0797
      3 C3          0.0270    3.6941    0.6682 C.ar      1 <0>        -0.0963
      4 C4         -1.1630    2.9934    0.6557 C.ar      1 <0>        -0.1138
      5 C5         -1.2363    1.7638    0.0138 C.ar      1 <0>         0.1156
      6 C6         -0.1148    1.2483   -0.6230 C.ar      1 <0>        -0.1366
      7 C7          1.0720    1.9544   -0.6072 C.ar      1 <0>        -0.0967
      8 N1         -2.4381    1.0490    0.0042 N.am      1 <0>        -0.6705
      9 C8         -3.6115    1.7019    0.1199 C.2       1 <0>         0.5725
     10 O1         -3.6328    2.9179    0.1258 O.2       1 <0>        -0.4657
     11 C9         -4.8691    0.9422    0.2394 C.2       1 <0>        -0.2507
     12 C10        -6.0833    1.5803    0.3648 C.2       1 <0>         0.1518
     13 C11        -7.2763    0.7382    0.4755 C.ar      1 <0>        -0.1194
     14 C12        -8.5662    1.2645    0.3379 C.ar      1 <0>        -0.0589
     15 C13        -9.6418    0.4084    0.4544 C.ar      1 <0>         0.1441
     16 N2         -9.4687   -0.8791    0.6906 N.ar      1 <0>        -0.4159
     17 C14        -8.2756   -1.4213    0.8287 C.ar      1 <0>         0.1701
     18 C15        -7.1338   -0.6392    0.7289 C.ar      1 <0>         0.0537
     19 O2         -5.8971   -1.1718    0.8700 O.3       1 <0>        -0.1852
     20 C16        -4.8785   -0.5348    0.2356 C.2       1 <0>         0.5283
     21 N3         -3.9271   -1.2144   -0.3646 N.pl3     1 <0>        -0.5126
     22 C17        -4.0072   -2.5780   -0.4458 C.ar      1 <0>        -0.0002
     23 C18        -3.3620   -3.3754    0.5026 C.ar      1 <0>        -0.0623
     24 C19        -3.4495   -4.7489    0.4195 C.ar      1 <0>        -0.1106
     25 C20        -4.1687   -5.3398   -0.6108 C.ar      1 <0>         0.1475
     26 C21        -4.8072   -4.5514   -1.5587 C.ar      1 <0>        -0.1230
     27 C22        -4.7296   -3.1770   -1.4807 C.ar      1 <0>        -0.0617
     28 O3         -4.2482   -6.6945   -0.6914 O.3       1 <0>        -0.2575
     29 C23        -3.5034   -7.3219   -1.6389 C.ar      1 <0>         0.1094
     30 C24        -2.6171   -6.5946   -2.4206 C.ar      1 <0>        -0.1962
     31 C25        -1.8573   -7.2358   -3.3796 C.ar      1 <0>        -0.0812
     32 C26        -1.9876   -8.5993   -3.5688 C.ar      1 <0>        -0.1402
     33 C27        -2.8738   -9.3256   -2.7948 C.ar      1 <0>        -0.0774
     34 C28        -3.6319   -8.6903   -1.8305 C.ar      1 <0>        -0.1351
     35 C29        -8.1505   -2.8990    1.0970 C.3       1 <0>        -0.1189
     36 C30        -8.7751    2.7324    0.0681 C.3       1 <0>         0.1168
     37 O4        -10.1747    3.0046   -0.0278 O.3       1 <0>        -0.5965
     38 H1          2.3035    4.8824    0.6094 H         1 <0>         0.0708
     39 H2          2.7456    4.1685   -0.9786 H         1 <0>         0.0762
     40 H3          3.2181    3.3378    0.5423 H         1 <0>         0.0760
     41 H4          0.0858    4.6483    1.1707 H         1 <0>         0.1340
     42 H5         -2.0343    3.3989    1.1483 H         1 <0>         0.1435
     43 H6         -0.1696    0.2944   -1.1266 H         1 <0>         0.1256
     44 H7          1.9456    1.5522   -1.0987 H         1 <0>         0.1343
     45 H8         -2.4258   -0.0462   -0.0978 H         1 <0>         0.3930
     46 H9         -6.1530    2.6580    0.3775 H         1 <0>         0.2016
     47 H10       -10.6435    0.7985    0.3508 H         1 <0>         0.1981
     48 H11        -2.7991   -2.9166    1.3020 H         1 <0>         0.1497
     49 H12        -2.9548   -5.3661    1.1549 H         1 <0>         0.1576
     50 H13        -5.3657   -5.0154   -2.3582 H         1 <0>         0.1551
     51 H14        -5.2268   -2.5645   -2.2182 H         1 <0>         0.1458
     52 H15        -2.5183   -5.5288   -2.2763 H         1 <0>         0.1228
     53 H16        -1.1641   -6.6709   -3.9853 H         1 <0>         0.1296
     54 H17        -1.3959   -9.0980   -4.3222 H         1 <0>         0.1315
     55 H18        -2.9732  -10.3906   -2.9440 H         1 <0>         0.1382
     56 H19        -4.3237   -9.2581   -1.2260 H         1 <0>         0.1374
     57 H20        -7.0871   -3.1675    1.1817 H         1 <0>         0.0822
     58 H21        -8.6060   -3.4618    0.2689 H         1 <0>         0.1015
     59 H22        -8.6671   -3.1461    2.0362 H         1 <0>         0.1039
     60 H23        -8.3425    3.3215    0.8902 H         1 <0>         0.0806
     61 H24        -8.2829    3.0052   -0.8770 H         1 <0>         0.0783
     62 H25       -10.5236    4.0294   -0.2230 H         1 <0>         0.4397
     63 H26        -3.0664   -0.6870   -0.8017 H         1 <0>         0.4711
@<TRIPOS>BOND
     1    1    2 1
     2    1   38 1
     3    1   39 1
     4    1   40 1
     5    2    7 ar
     6    2    3 ar
     7    3    4 ar
     8    3   41 1
     9    4    5 ar
    10    4   42 1
    11    5    6 ar
    12    5    8 1
    13    6    7 ar
    14    6   43 1
    15    7   44 1
    16    8    9 am
    17    8   45 1
    18    9   10 2
    19    9   11 1
    20   11   20 1
    21   11   12 2
    22   12   13 1
    23   12   46 1
    24   13   18 ar
    25   13   14 ar
    26   14   15 ar
    27   14   36 1
    28   15   16 ar
    29   15   47 1
    30   16   17 ar
    31   17   18 ar
    32   17   35 1
    33   18   19 1
    34   19   20 1
    35   20   21 2
    36   21   22 1
    37   21   63 1
    38   22   27 ar
    39   22   23 ar
    40   23   24 ar
    41   23   48 1
    42   24   25 ar
    43   24   49 1
    44   25   26 ar
    45   25   28 1
    46   26   27 ar
    47   26   50 1
    48   27   51 1
    49   28   29 1
    50   29   34 ar
    51   29   30 ar
    52   30   31 ar
    53   30   52 1
    54   31   32 ar
    55   31   53 1
    56   32   33 ar
    57   32   54 1
    58   33   34 ar
    59   33   55 1
    60   34   56 1
    61   35   57 1
    62   35   58 1
    63   35   59 1
    64   36   37 1
    65   36   60 1
    66   36   61 1
    67   37   62 1
