@<TRIPOS>MOLECULE
ZINC48374436
   34    36     0     0     0
SMALL
USER_CHARGES

@<TRIPOS>ATOM
      1 C1         -0.0187    1.5258    0.0104 C.3       1 <0>        -0.1596
      2 C2          0.0021   -0.0041    0.0020 C.3       1 <0>         0.2458
      3 H1          0.5123   -0.3556   -0.8948 H         1 <0>         0.1064
      4 C3          0.7309   -0.5033    1.2229 C.2       1 <0>         0.1239
      5 N1          0.2682   -0.5219    2.4462 N.2       1 <0>        -0.2357
      6 N2          1.1470   -1.0118    3.2484 N.2       1 <0>        -0.2832
      7 C4          2.2338   -1.3365    2.5673 C.2       1 <0>         0.1985
      8 N3          1.9883   -1.0224    1.2530 N.pl3     1 <0>        -0.3814
      9 C5          2.9353   -1.2519    0.2988 C.2       1 <0>         0.0597
     10 C6          4.1258   -1.7936    0.6314 C.2       1 <0>        -0.1288
     11 C7          4.4055   -2.1287    1.9674 C.2       1 <0>        -0.0840
     12 C8          3.4731   -1.8979    2.9306 C.2       1 <0>        -0.0785
     13 N4         -1.3723   -0.5112    0.0124 N.am      1 <0>        -0.7156
     14 C9         -2.0508   -0.6427   -1.1446 C.2       1 <0>         0.5615
     15 O1         -1.5224   -0.3406   -2.1969 O.2       1 <0>        -0.5075
     16 C10        -3.4366   -1.1540   -1.1342 C.ar      1 <0>        -0.1294
     17 C11        -4.0486   -1.4966    0.0736 C.ar      1 <0>        -0.0593
     18 C12        -5.3419   -1.9732    0.0771 C.ar      1 <0>        -0.1134
     19 C13        -6.0356   -2.1135   -1.1143 C.ar      1 <0>         0.0015
     20 C14        -5.4357   -1.7765   -2.3153 C.ar      1 <0>        -0.1134
     21 C15        -4.1428   -1.2916   -2.3320 C.ar      1 <0>         0.0270
     22 Cl1        -3.3939   -0.8619   -3.8381 Cl        1 <0>        -0.0143
     23 Cl2        -7.6640   -2.7151   -1.1004 Cl        1 <0>        -0.0444
     24 H2          1.0039    1.9031    0.0027 H         1 <0>         0.0691
     25 H3         -0.5459    1.8868   -0.8726 H         1 <0>         0.0799
     26 H4         -0.5289    1.8773    0.9072 H         1 <0>         0.0723
     27 H5          2.7309   -0.9986   -0.7309 H         1 <0>         0.1720
     28 H6          4.8676   -1.9709   -0.1333 H         1 <0>         0.1601
     29 H7          5.3595   -2.5620    2.2292 H         1 <0>         0.1518
     30 H8          3.6765   -2.1531    3.9601 H         1 <0>         0.1607
     31 H9         -1.7940   -0.7522    0.8520 H         1 <0>         0.4091
     32 H10        -3.5093   -1.3885    1.0031 H         1 <0>         0.1465
     33 H11        -5.8157   -2.2382    1.0107 H         1 <0>         0.1496
     34 H12        -5.9813   -1.8888   -3.2406 H         1 <0>         0.1530
@<TRIPOS>BOND
     1    1    2 1
     2    1   24 1
     3    1   25 1
     4    1   26 1
     5    2    3 1
     6    2    4 1
     7    2   13 1
     8    4    8 1
     9    4    5 2
    10    5    6 1
    11    6    7 2
    12    7   12 1
    13    7    8 1
    14    8    9 1
    15    9   10 2
    16    9   27 1
    17   10   11 1
    18   10   28 1
    19   11   12 2
    20   11   29 1
    21   12   30 1
    22   13   14 am
    23   13   31 1
    24   14   15 2
    25   14   16 1
    26   16   21 ar
    27   16   17 ar
    28   17   18 ar
    29   17   32 1
    30   18   19 ar
    31   18   33 1
    32   19   20 ar
    33   19   23 1
    34   20   21 ar
    35   20   34 1
    36   21   22 1
