@<TRIPOS>MOLECULE
ZINC10436559
   66    70     0     0     0
SMALL
USER_CHARGES
1-(1-adamantyl)-N-[(2-benzyloxy-5-chloro-3-methoxy-phenyl)methyl]ethanamine
@<TRIPOS>ATOM
      1 C1         -3.4406    4.6633    5.6449 C.3       1 <0>        -0.1863
      2 C2         -4.5094    3.9971    4.7762 C.3       1 <0>         0.0354
      3 H1         -5.0070    3.2143    5.3487 H         1 <0>         0.1407
      4 C3         -5.5380    5.0431    4.3414 C.3       1 <0>        -0.0715
      5 C4         -6.6068    4.3769    3.4727 C.3       1 <0>        -0.1155
      6 C5         -7.6354    5.4228    3.0379 C.3       1 <0>        -0.0822
      7 C6         -8.2935    6.0361    4.2755 C.3       1 <0>        -0.1137
      8 C7         -7.2247    6.7022    5.1442 C.3       1 <0>        -0.0859
      9 C8         -6.1961    5.6563    5.5790 C.3       1 <0>        -0.0989
     10 C9         -6.5263    7.8010    4.3406 C.3       1 <0>        -0.1135
     11 C10        -5.8682    7.1878    3.1030 C.3       1 <0>        -0.0830
     12 C11        -6.9370    6.5216    2.2343 C.3       1 <0>        -0.1154
     13 C12        -4.8396    6.1419    3.5378 C.3       1 <0>        -0.1186
     14 C13        -3.3663    2.0617    3.8763 C.3       1 <0>         0.0559
     15 C14        -2.8519    1.4368    2.6051 C.ar      1 <0>        -0.1300
     16 C15        -3.5866    0.4503    1.9732 C.ar      1 <0>        -0.1087
     17 C16        -3.1172   -0.1252    0.8064 C.ar      1 <0>         0.0028
     18 C17        -1.9104    0.2841    0.2668 C.ar      1 <0>        -0.1645
     19 C18        -1.1706    1.2722    0.8954 C.ar      1 <0>         0.1371
     20 C19        -1.6411    1.8476    2.0722 C.ar      1 <0>         0.0848
     21 O1         -0.9155    2.8146    2.6954 O.3       1 <0>        -0.3248
     22 C20         0.0753    2.3814    3.6297 C.3       1 <0>         0.1078
     23 C21         0.7916    3.5810    4.1945 C.ar      1 <0>        -0.1043
     24 C22         1.9136    4.0786    3.5587 C.ar      1 <0>        -0.0886
     25 C23         2.5676    5.1822    4.0739 C.ar      1 <0>        -0.1166
     26 C24         2.1059    5.7814    5.2309 C.ar      1 <0>        -0.1020
     27 C25         0.9872    5.2803    5.8699 C.ar      1 <0>        -0.1213
     28 C26         0.3299    4.1802    5.3515 C.ar      1 <0>        -0.1055
     29 O2          0.0158    1.6754    0.3668 O.3       1 <0>        -0.2936
     30 C27         0.4390    1.0367   -0.8395 C.3       1 <0>         0.0162
     31 Cl1        -4.0433   -1.3637    0.0176 Cl        1 <0>        -0.0309
     32 H2         -3.9081    5.0913    6.5318 H         1 <0>         0.1098
     33 H3         -2.7022    3.9203    5.9462 H         1 <0>         0.0790
     34 H4         -2.9501    5.4530    5.0758 H         1 <0>         0.0870
     35 H5         -6.1379    3.9400    2.5910 H         1 <0>         0.0547
     36 H6         -7.1044    3.5941    4.0452 H         1 <0>         0.0800
     37 H7         -8.3968    4.9482    2.4190 H         1 <0>         0.0805
     38 H8         -8.7911    5.2533    4.8480 H         1 <0>         0.0667
     39 H9         -9.0263    6.7812    3.9657 H         1 <0>         0.0713
     40 H10        -7.6936    7.1391    6.0259 H         1 <0>         0.0814
     41 H11        -6.6937    4.8735    6.1515 H         1 <0>         0.0738
     42 H12        -5.4347    6.1309    6.1979 H         1 <0>         0.0770
     43 H13        -7.2591    8.5462    4.0309 H         1 <0>         0.0708
     44 H14        -5.7649    8.2756    4.9596 H         1 <0>         0.0666
     45 H15        -5.3706    7.9706    2.5305 H         1 <0>         0.0797
     46 H16        -6.4681    6.0847    1.3526 H         1 <0>         0.0628
     47 H17        -7.6698    7.2667    1.9245 H         1 <0>         0.0729
     48 H18        -4.0782    6.6165    4.1567 H         1 <0>         0.0818
     49 H19        -4.3707    5.7050    2.6561 H         1 <0>         0.0559
     50 H20        -4.1694    1.4477    4.2839 H         1 <0>         0.1438
     51 H21        -2.5558    2.1285    4.6021 H         1 <0>         0.1376
     52 H22        -4.5286    0.1283    2.3919 H         1 <0>         0.1518
     53 H23        -1.5453   -0.1670   -0.6440 H         1 <0>         0.1559
     54 H24        -0.4044    1.8305    4.4387 H         1 <0>         0.0644
     55 H25         0.7926    1.7344    3.1248 H         1 <0>         0.0746
     56 H26         2.2769    3.6077    2.6572 H         1 <0>         0.1265
     57 H27         3.4414    5.5739    3.5746 H         1 <0>         0.1293
     58 H28         2.6191    6.6413    5.6355 H         1 <0>         0.1283
     59 H29         0.6265    5.7484    6.7738 H         1 <0>         0.1268
     60 H30        -0.5441    3.7887    5.8507 H         1 <0>         0.1168
     61 H31         0.5445   -0.0342   -0.6659 H         1 <0>         0.0648
     62 H32         1.3977    1.4503   -1.1525 H         1 <0>         0.1145
     63 H33        -0.3024    1.2069   -1.6202 H         1 <0>         0.0651
     64 N1         -3.8767    3.4132    3.5784 N.4       1 <0>        -0.5193
     65 H34        -3.0972    4.0117    3.2812 H         1 <0>         0.4353
     66 H35        -4.5703    3.3545    2.8236 H         1 <0>         0.4270
@<TRIPOS>BOND
     1    1    2 1
     2    1   32 1
     3    1   33 1
     4    1   34 1
     5    2    3 1
     6    2    4 1
     7    2   64 1
     8    4    9 1
     9    4   13 1
    10    4    5 1
    11    5    6 1
    12    5   35 1
    13    5   36 1
    14    6   12 1
    15    6    7 1
    16    6   37 1
    17    7    8 1
    18    7   38 1
    19    7   39 1
    20    8    9 1
    21    8   10 1
    22    8   40 1
    23    9   41 1
    24    9   42 1
    25   10   11 1
    26   10   43 1
    27   10   44 1
    28   11   12 1
    29   11   13 1
    30   11   45 1
    31   12   46 1
    32   12   47 1
    33   13   48 1
    34   13   49 1
    35   14   15 1
    36   14   50 1
    37   14   51 1
    38   14   64 1
    39   15   20 ar
    40   15   16 ar
    41   16   17 ar
    42   16   52 1
    43   17   18 ar
    44   17   31 1
    45   18   19 ar
    46   18   53 1
    47   19   20 ar
    48   19   29 1
    49   20   21 1
    50   21   22 1
    51   22   23 1
    52   22   54 1
    53   22   55 1
    54   23   28 ar
    55   23   24 ar
    56   24   25 ar
    57   24   56 1
    58   25   26 ar
    59   25   57 1
    60   26   27 ar
    61   26   58 1
    62   27   28 ar
    63   27   59 1
    64   28   60 1
    65   29   30 1
    66   30   61 1
    67   30   62 1
    68   30   63 1
    69   64   65 1
    70   64   66 1
