@<TRIPOS>MOLECULE
ZINC38965015
   52    56     0     0     0
SMALL
USER_CHARGES

@<TRIPOS>ATOM
      1 C1          1.1514    0.9684   -0.9753 C.2       1 <0>        -0.1371
      2 C2          1.1217   -0.3340   -0.8379 C.2       1 <0>        -0.2056
      3 C3          2.2996   -1.0552   -0.2349 C.3       1 <0>         0.1229
      4 N1          1.8419   -1.8959    0.8741 N.pl3     1 <0>        -0.4433
      5 C4          1.8442   -1.5795    2.2130 C.2       1 <0>         0.2561
      6 N2          1.3512   -2.6135    2.8541 N.2       1 <0>        -0.2580
      7 N3          1.0451   -3.5418    2.0199 N.2       1 <0>        -0.2362
      8 C5          1.3185   -3.1548    0.7938 C.2       1 <0>         0.1131
      9 S1          1.0619   -4.0881   -0.6786 S.3       1 <0>         0.1208
     10 C6          0.3490   -5.6489   -0.0901 C.3       1 <0>        -0.1519
     11 H1         -0.5310   -5.4072    0.5058 H         1 <0>         0.2015
     12 C7         -0.1112   -6.4364   -1.3017 C.2       1 <0>         0.2714
     13 C8          0.4380   -7.7097   -1.4776 C.ar      1 <0>        -0.1654
     14 C9          0.0635   -8.5086   -2.5784 C.ar      1 <0>         0.0348
     15 C10         0.6094   -9.7443   -2.7304 C.ar      1 <0>        -0.1570
     16 C11         1.5370  -10.2441   -1.8168 C.ar      1 <0>         0.1463
     17 C12         1.9398   -9.5131   -0.7257 C.ar      1 <0>        -0.2173
     18 C13         1.4136   -8.2279   -0.5122 C.ar      1 <0>         0.3574
     19 N4          1.8069   -7.5159    0.5501 N.am      1 <0>        -0.5883
     20 C14         1.3602   -6.3063    0.8213 C.2       1 <0>         0.5127
     21 O1          1.7630   -5.7174    1.8074 O.2       1 <0>        -0.3741
     22 Cl1         2.1986  -11.8299   -2.0642 Cl        1 <0>         0.0281
     23 C15        -1.0558   -5.9054   -2.2142 C.ar      1 <0>        -0.1663
     24 C16        -0.6232   -5.2560   -3.3827 C.ar      1 <0>        -0.0537
     25 C17        -1.5491   -4.7441   -4.2629 C.ar      1 <0>        -0.1024
     26 C18        -2.9049   -4.8669   -4.0009 C.ar      1 <0>        -0.0542
     27 C19        -3.3435   -5.5040   -2.8531 C.ar      1 <0>        -0.0984
     28 C20        -2.4330   -6.0296   -1.9600 C.ar      1 <0>         0.0046
     29 Cl2        -2.9852   -6.8347   -0.5245 Cl        1 <0>        -0.0383
     30 C21         2.3137   -0.3139    2.8160 C.ar      1 <0>        -0.0880
     31 C22         2.9312   -0.3102    4.0725 C.ar      1 <0>        -0.0256
     32 C23         3.3524    0.9008    4.5925 C.ar      1 <0>        -0.1646
     33 C24         3.1520    2.0581    3.8615 C.ar      1 <0>         0.1219
     34 N5          2.5666    2.0245    2.6798 N.ar      1 <0>        -0.4751
     35 C25         2.1540    0.8962    2.1399 C.ar      1 <0>         0.1107
     36 H2          1.9992    1.5305   -0.6121 H         1 <0>         0.1115
     37 H3          0.3303    1.4797   -1.4556 H         1 <0>         0.1198
     38 H4          0.2530   -0.8909   -1.1567 H         1 <0>         0.1240
     39 H5          2.7706   -1.6797   -0.9940 H         1 <0>         0.1098
     40 H6          3.0210   -0.3267    0.1351 H         1 <0>         0.1131
     41 H7         -0.6537   -8.1402   -3.2969 H         1 <0>         0.1779
     42 H8          0.3187  -10.3511   -3.5751 H         1 <0>         0.1770
     43 H9          2.6593   -9.9253   -0.0336 H         1 <0>         0.1836
     44 H10         0.4323   -5.1586   -3.5892 H         1 <0>         0.1478
     45 H11        -1.2180   -4.2444   -5.1613 H         1 <0>         0.1536
     46 H12        -3.6242   -4.4620   -4.6974 H         1 <0>         0.1530
     47 H13        -4.4019   -5.5936   -2.6582 H         1 <0>         0.1561
     48 H14         3.0747   -1.2289    4.6219 H         1 <0>         0.1477
     49 H15         3.8323    0.9422    5.5591 H         1 <0>         0.1505
     50 H16         3.4798    3.0047    4.2650 H         1 <0>         0.1687
     51 H17         1.6835    0.9084    1.1679 H         1 <0>         0.1604
     52 H18         2.4549   -7.9119    1.1535 H         1 <0>         0.4438
@<TRIPOS>BOND
     1    1    2 2
     2    1   36 1
     3    1   37 1
     4    2    3 1
     5    2   38 1
     6    3    4 1
     7    3   39 1
     8    3   40 1
     9    4    8 1
    10    4    5 1
    11    5    6 2
    12    5   30 1
    13    6    7 1
    14    7    8 2
    15    8    9 1
    16    9   10 1
    17   10   11 1
    18   10   20 1
    19   10   12 1
    20   12   13 2
    21   12   23 1
    22   13   18 ar
    23   13   14 ar
    24   14   15 ar
    25   14   41 1
    26   15   16 ar
    27   15   42 1
    28   16   17 ar
    29   16   22 1
    30   17   18 ar
    31   17   43 1
    32   18   19 2
    33   19   20 am
    34   19   52 1
    35   20   21 2
    36   23   28 ar
    37   23   24 ar
    38   24   25 ar
    39   24   44 1
    40   25   26 ar
    41   25   45 1
    42   26   27 ar
    43   26   46 1
    44   27   28 ar
    45   27   47 1
    46   28   29 1
    47   30   35 ar
    48   30   31 ar
    49   31   32 ar
    50   31   48 1
    51   32   33 ar
    52   32   49 1
    53   33   34 ar
    54   33   50 1
    55   34   35 ar
    56   35   51 1
