@<TRIPOS>MOLECULE
ZINC39727230
   64    68     0     0     0
SMALL
USER_CHARGES

@<TRIPOS>ATOM
      1 C1         -1.2061    1.4533   -0.3810 C.ar      1 <0>        -0.0136
      2 C2         -0.1632    2.3935   -0.3501 C.ar      1 <0>         0.1330
      3 C3          1.1384    2.0399   -0.2338 C.ar      1 <0>        -0.2045
      4 C4          1.5039    0.6785   -0.1365 C.ar      1 <0>         0.3798
      5 N1          2.7766    0.3388   -0.0226 N.am      1 <0>        -0.5172
      6 C5          3.1545   -0.9379    0.0713 C.2       1 <0>         0.4970
      7 O1          4.3301   -1.2257    0.1756 O.2       1 <0>        -0.3081
      8 C6          2.1000   -2.0208    0.0468 C.3       1 <0>         0.0342
      9 H1          2.3280   -2.6879   -0.7846 H         1 <0>         0.2234
     10 N2          0.6932   -1.6096   -0.0809 N.pl3     1 <0>        -0.4124
     11 C7          0.4231   -0.3390   -0.1658 C.ar      1 <0>         0.3317
     12 C8         -0.9678    0.1262   -0.2950 C.ar      1 <0>        -0.1203
     13 C9          2.2331   -2.8309    1.3378 C.3       1 <0>        -0.1250
     14 C10         1.2659   -4.0158    1.2985 C.3       1 <0>        -0.1592
     15 C11         1.3970   -4.8137    2.5701 C.2       1 <0>         0.5134
     16 O2          2.1863   -4.4687    3.4239 O.2       1 <0>        -0.5277
     17 N3          0.6371   -5.9108    2.7587 N.am      1 <0>        -0.6024
     18 C12        -0.3219   -6.3501    1.7337 C.3       1 <0>         0.1083
     19 C13        -1.6859   -6.5579    2.4005 C.3       1 <0>         0.0381
     20 N4         -1.5354   -7.4701    3.5420 N.3       1 <0>        -0.5275
     21 C14        -0.6612   -6.8943    4.5726 C.3       1 <0>         0.0406
     22 C15         0.7492   -6.7038    3.9923 C.3       1 <0>         0.1153
     23 C16        -2.8441   -7.8311    4.1034 C.3       1 <0>         0.1794
     24 C17        -3.6992   -8.4489    3.0272 C.ar      1 <0>        -0.0998
     25 C18        -3.1567   -9.3843    2.1659 C.ar      1 <0>        -0.0634
     26 C19        -3.9400   -9.9518    1.1789 C.ar      1 <0>        -0.1559
     27 C20        -5.2687   -9.5832    1.0529 C.ar      1 <0>         0.1075
     28 C21        -5.8110   -8.6462    1.9161 C.ar      1 <0>        -0.1529
     29 C22        -5.0271   -8.0840    2.9057 C.ar      1 <0>        -0.0819
     30 F1         -6.0353  -10.1370    0.0881 F         1 <0>        -0.1348
     31 C23        -2.6542   -8.8207    5.2240 C.ar      1 <0>        -0.1042
     32 C24        -1.7828   -9.8825    5.0676 C.ar      1 <0>        -0.0621
     33 C25        -1.6076  -10.7903    6.0947 C.ar      1 <0>        -0.1555
     34 C26        -2.3052  -10.6362    7.2808 C.ar      1 <0>         0.1105
     35 C27        -3.1777   -9.5724    7.4363 C.ar      1 <0>        -0.1522
     36 C28        -3.3473   -8.6628    6.4097 C.ar      1 <0>        -0.0809
     37 F2         -2.1350  -11.5233    8.2854 F         1 <0>        -0.1337
     38 H2         -2.2249    1.8003   -0.4713 H         1 <0>         0.2108
     39 H3         -0.4099    3.4425   -0.4225 H         1 <0>         0.2101
     40 H4          1.9022    2.8032   -0.2157 H         1 <0>         0.2140
     41 H5         -1.7835   -0.5812   -0.3202 H         1 <0>         0.2161
     42 H6          3.2548   -3.1989    1.4322 H         1 <0>         0.1544
     43 H7          1.9953   -2.1960    2.1913 H         1 <0>         0.1151
     44 H8          0.2442   -3.6478    1.2041 H         1 <0>         0.0885
     45 H9          1.5037   -4.6507    0.4450 H         1 <0>         0.1241
     46 H10        -0.4052   -5.5875    0.9594 H         1 <0>         0.0786
     47 H11         0.0170   -7.2878    1.2932 H         1 <0>         0.0921
     48 H12        -2.0701   -5.5993    2.7490 H         1 <0>         0.0381
     49 H13        -2.3811   -6.9886    1.6799 H         1 <0>         0.0997
     50 H14        -1.0598   -5.9310    4.8910 H         1 <0>         0.0418
     51 H15        -0.6133   -7.5690    5.4274 H         1 <0>         0.1015
     52 H16         1.1890   -7.6748    3.7647 H         1 <0>         0.0881
     53 H17         1.3743   -6.1751    4.7119 H         1 <0>         0.1019
     54 H18        -3.3338   -6.9365    4.4878 H         1 <0>         0.0628
     55 H19        -2.1202   -9.6714    2.2642 H         1 <0>         0.1391
     56 H20        -3.5159  -10.6823    0.5059 H         1 <0>         0.1382
     57 H21        -6.8471   -8.3577    1.8186 H         1 <0>         0.1384
     58 H22        -5.4510   -7.3564    3.5820 H         1 <0>         0.1305
     59 H23        -1.2390  -10.0027    4.1423 H         1 <0>         0.1379
     60 H24        -0.9270  -11.6199    5.9722 H         1 <0>         0.1387
     61 H25        -3.7226   -9.4513    8.3608 H         1 <0>         0.1392
     62 H26        -4.0244   -7.8305    6.5324 H         1 <0>         0.1302
     63 H27        -0.0169   -2.2701   -0.1009 H         1 <0>         0.4802
     64 H28         3.4523    1.0345   -0.0073 H         1 <0>         0.4726
@<TRIPOS>BOND
     1    1   12 ar
     2    1    2 ar
     3    1   38 1
     4    2    3 ar
     5    2   39 1
     6    3    4 ar
     7    3   40 1
     8    4   11 ar
     9    4    5 2
    10    5    6 am
    11    5   64 1
    12    6    7 2
    13    6    8 1
    14    8    9 1
    15    8   10 1
    16    8   13 1
    17   10   11 2
    18   10   63 1
    19   11   12 ar
    20   12   41 1
    21   13   14 1
    22   13   42 1
    23   13   43 1
    24   14   15 1
    25   14   44 1
    26   14   45 1
    27   15   16 2
    28   15   17 am
    29   17   22 1
    30   17   18 1
    31   18   19 1
    32   18   46 1
    33   18   47 1
    34   19   20 1
    35   19   48 1
    36   19   49 1
    37   20   21 1
    38   20   23 1
    39   21   22 1
    40   21   50 1
    41   21   51 1
    42   22   52 1
    43   22   53 1
    44   23   24 1
    45   23   31 1
    46   23   54 1
    47   24   29 ar
    48   24   25 ar
    49   25   26 ar
    50   25   55 1
    51   26   27 ar
    52   26   56 1
    53   27   28 ar
    54   27   30 1
    55   28   29 ar
    56   28   57 1
    57   29   58 1
    58   31   36 ar
    59   31   32 ar
    60   32   33 ar
    61   32   59 1
    62   33   34 ar
    63   33   60 1
    64   34   35 ar
    65   34   37 1
    66   35   36 ar
    67   35   61 1
    68   36   62 1
