@<TRIPOS>MOLECULE
ZINC40823885
   48    51     0     0     0
SMALL
USER_CHARGES

@<TRIPOS>ATOM
      1 C1         -0.0141    1.5024    0.0099 C.3       1 <0>        -0.1003
      2 C2         -0.0035   -0.0046    0.0019 C.2       1 <0>        -0.0242
      3 C3         -0.0071   -0.8388   -1.1223 C.2       1 <0>        -0.1489
      4 C4          0.0042   -2.1377   -0.6727 C.2       1 <0>         0.0659
      5 O1          0.0175   -2.1122    0.6586 O.3       1 <0>        -0.1474
      6 C5          0.0176   -0.8309    1.0913 C.2       1 <0>        -0.1079
      7 C6          0.0337   -0.4000    2.4933 C.2       1 <0>         0.6116
      8 O2          0.0287    0.7862    2.7655 O.2       1 <0>        -0.4922
      9 N1          0.0540   -1.3177    3.4802 N.am      1 <0>        -0.6663
     10 C7          0.1669   -0.9090    4.8130 C.ar      1 <0>         0.1591
     11 C8          0.8877   -1.6776    5.7178 C.ar      1 <0>        -0.1364
     12 C9          0.9974   -1.2716    7.0332 C.ar      1 <0>        -0.0707
     13 C10         0.3896   -0.1006    7.4502 C.ar      1 <0>        -0.1045
     14 C11        -0.3295    0.6669    6.5511 C.ar      1 <0>        -0.0703
     15 C12        -0.4370    0.2692    5.2330 C.ar      1 <0>        -0.1148
     16 Br1         0.5416    0.4516    9.2524 Br        1 <0>        -0.0479
     17 C13        -0.0012   -3.3268   -1.5995 C.3       1 <0>        -0.0445
     18 C14        -0.5285   -2.8996   -2.9719 C.3       1 <0>        -0.1095
     19 C15         0.2484   -1.6873   -3.4960 C.3       1 <0>        -0.1146
     20 C16        -0.0184   -0.5125   -2.5663 C.2       1 <0>         0.1492
     21 N2         -0.2400    0.6877   -3.0071 N.2       1 <0>        -0.2240
     22 N3         -0.2388    0.9391   -4.3853 N.pl3     1 <0>        -0.5812
     23 C17        -0.4773    2.2305   -4.8596 C.ar      1 <0>         0.2063
     24 C18        -0.7102    3.2685   -3.9654 C.ar      1 <0>        -0.1316
     25 C19        -0.9458    4.5447   -4.4370 C.ar      1 <0>        -0.1134
     26 C20        -0.9501    4.7908   -5.7998 C.ar      1 <0>         0.0525
     27 C21        -0.7182    3.7582   -6.6931 C.ar      1 <0>        -0.1101
     28 C22        -0.4764    2.4813   -6.2265 C.ar      1 <0>        -0.1556
     29 F1         -1.1813    6.0403   -6.2587 F         1 <0>        -0.1428
     30 H1          1.0109    1.8730   -0.0021 H         1 <0>         0.0783
     31 H2         -0.5425    1.8667   -0.8711 H         1 <0>         0.0822
     32 H3         -0.5183    1.8574    0.9087 H         1 <0>         0.0874
     33 H4         -0.0096   -2.2616    3.2661 H         1 <0>         0.4177
     34 H5          1.3617   -2.5921    5.3931 H         1 <0>         0.1365
     35 H6          1.5578   -1.8689    7.7372 H         1 <0>         0.1386
     36 H7         -0.8031    1.5803    6.8794 H         1 <0>         0.1382
     37 H8         -0.9943    0.8711    4.5305 H         1 <0>         0.1495
     38 H9          1.0134   -3.7113   -1.7035 H         1 <0>         0.1030
     39 H10        -0.6447   -4.1048   -1.1889 H         1 <0>         0.0998
     40 H11        -0.4182   -3.7272   -3.6726 H         1 <0>         0.0926
     41 H12        -1.5838   -2.6404   -2.8865 H         1 <0>         0.0760
     42 H13         1.3150   -1.9115   -3.5083 H         1 <0>         0.0958
     43 H14        -0.0880   -1.4426   -4.5035 H         1 <0>         0.0785
     44 H15        -0.0724    0.2160   -5.0101 H         1 <0>         0.3905
     45 H16        -0.7074    3.0770   -2.9025 H         1 <0>         0.1415
     46 H17        -1.1273    5.3516   -3.7425 H         1 <0>         0.1378
     47 H18        -0.7224    3.9527   -7.7554 H         1 <0>         0.1383
     48 H19        -0.2912    1.6772   -6.9234 H         1 <0>         0.1319
@<TRIPOS>BOND
     1    1    2 1
     2    1   30 1
     3    1   31 1
     4    1   32 1
     5    2    6 2
     6    2    3 1
     7    3   20 1
     8    3    4 2
     9    4    5 1
    10    4   17 1
    11    5    6 1
    12    6    7 1
    13    7    8 2
    14    7    9 am
    15    9   10 1
    16    9   33 1
    17   10   15 ar
    18   10   11 ar
    19   11   12 ar
    20   11   34 1
    21   12   13 ar
    22   12   35 1
    23   13   14 ar
    24   13   16 1
    25   14   15 ar
    26   14   36 1
    27   15   37 1
    28   17   18 1
    29   17   38 1
    30   17   39 1
    31   18   19 1
    32   18   40 1
    33   18   41 1
    34   19   20 1
    35   19   42 1
    36   19   43 1
    37   20   21 2
    38   21   22 1
    39   22   23 1
    40   22   44 1
    41   23   28 ar
    42   23   24 ar
    43   24   25 ar
    44   24   45 1
    45   25   26 ar
    46   25   46 1
    47   26   27 ar
    48   26   29 1
    49   27   28 ar
    50   27   47 1
    51   28   48 1
