@<TRIPOS>MOLECULE
ZINC28289305
   57    58     0     0     0
SMALL
USER_CHARGES
N-[(2R)-2-(4-tert-butylphenyl)-2-dimethylamino-ethyl]-2-(2-chlorophenoxy)acetamide
@<TRIPOS>ATOM
      1 C1         -4.3352    3.3617    9.3937 C.3       1 <0>        -0.1454
      2 C2         -3.8606    1.9072    9.3811 C.3       1 <0>        -0.0379
      3 C3         -5.0680    0.9779    9.2420 C.3       1 <0>        -0.1519
      4 C4         -3.1274    1.5986   10.6880 C.3       1 <0>        -0.1439
      5 C5         -2.9259    1.6939    8.2183 C.ar      1 <0>        -0.0288
      6 C6         -1.7577    2.4272    8.1270 C.ar      1 <0>        -0.1047
      7 C7         -0.9006    2.2319    7.0602 C.ar      1 <0>        -0.0774
      8 C8         -1.2118    1.3032    6.0846 C.ar      1 <0>        -0.1553
      9 C9         -2.3826    0.5736    6.1732 C.ar      1 <0>        -0.1188
     10 C10        -3.2371    0.7652    7.2427 C.ar      1 <0>        -0.1093
     11 C11        -0.2776    1.0906    4.9214 C.3       1 <0>         0.0806
     12 H1          0.7137    1.5029    5.1611 H         1 <0>         0.1486
     13 C12        -0.8596    1.7547    3.6719 C.3       1 <0>         0.1036
     14 N1          0.0765    1.5999    2.5556 N.am      1 <0>        -0.7625
     15 C13        -0.2794    1.9969    1.3178 C.2       1 <0>         0.5188
     16 O1         -1.3744    2.4823    1.1280 O.2       1 <0>        -0.4847
     17 C14         0.6835    1.8376    0.1695 C.3       1 <0>         0.0373
     18 O2          0.0802    2.3278   -1.0295 O.3       1 <0>        -0.2786
     19 C15         0.8212    2.2568   -2.1668 C.ar      1 <0>         0.1288
     20 C16         2.1044    1.7317   -2.1283 C.ar      1 <0>        -0.2003
     21 C17         2.8536    1.6553   -3.2866 C.ar      1 <0>        -0.0746
     22 C18         2.3299    2.1122   -4.4820 C.ar      1 <0>        -0.1364
     23 C19         1.0534    2.6414   -4.5230 C.ar      1 <0>        -0.0693
     24 C20         0.2972    2.7150   -3.3679 C.ar      1 <0>        -0.0637
     25 Cl1        -1.3055    3.3801   -3.4193 Cl        1 <0>        -0.0461
     26 N2         -0.1158   -0.3494    4.6802 N.4       1 <0>        -0.4033
     27 C21        -1.1015   -0.8339    3.7047 C.3       1 <0>        -0.0708
     28 C22         1.2524   -0.6597    4.2446 C.3       1 <0>        -0.0491
     29 H2         -3.4671    4.0298    9.4937 H         1 <0>         0.0599
     30 H3         -5.0174    3.5174   10.2424 H         1 <0>         0.0688
     31 H4         -4.8623    3.5835    8.4540 H         1 <0>         0.0596
     32 H5         -4.7267   -0.0678    9.2329 H         1 <0>         0.0604
     33 H6         -5.5951    1.1997    8.3023 H         1 <0>         0.0613
     34 H7         -5.7502    1.1336   10.0907 H         1 <0>         0.0684
     35 H8         -2.7862    0.5529   10.6789 H         1 <0>         0.0582
     36 H9         -3.8096    1.7543   11.5367 H         1 <0>         0.0686
     37 H10        -2.2593    2.2667   10.7879 H         1 <0>         0.0597
     38 H11        -1.5148    3.1530    8.8890 H         1 <0>         0.1366
     39 H12         0.0120    2.8050    6.9887 H         1 <0>         0.1338
     40 H13        -2.6278   -0.1487    5.4087 H         1 <0>         0.1263
     41 H14        -4.1500    0.1926    7.3139 H         1 <0>         0.1409
     42 H15        -1.8175    1.2783    3.4159 H         1 <0>         0.1028
     43 H16        -1.0230    2.8247    3.8677 H         1 <0>         0.1119
     44 H17         1.0698    1.1597    2.7277 H         1 <0>         0.4139
     45 H18         1.6006    2.4080    0.3782 H         1 <0>         0.1005
     46 H19         0.9337    0.7736    0.0456 H         1 <0>         0.0970
     47 H20         2.5162    1.3790   -1.1943 H         1 <0>         0.1334
     48 H21         3.8512    1.2426   -3.2575 H         1 <0>         0.1353
     49 H22         2.9192    2.0558   -5.3853 H         1 <0>         0.1389
     50 H23         0.6467    2.9979   -5.4578 H         1 <0>         0.1451
     51 H24        -0.9580   -1.9125    3.5432 H         1 <0>         0.1302
     52 H25        -0.9681   -0.2996    2.7525 H         1 <0>         0.1281
     53 H26        -2.1165   -0.6524    4.0880 H         1 <0>         0.1283
     54 H27         1.3455   -1.7420    4.0715 H         1 <0>         0.1339
     55 H28         1.9643   -0.3504    5.0240 H         1 <0>         0.1317
     56 H29         1.4718   -0.1190    3.3121 H         1 <0>         0.1105
     57 H30        -0.2951   -0.8735    5.6305 H         1 <0>         0.4511
@<TRIPOS>BOND
     1    1    2 1
     2    1   29 1
     3    1   30 1
     4    1   31 1
     5    2    3 1
     6    2    4 1
     7    2    5 1
     8    3   32 1
     9    3   33 1
    10    3   34 1
    11    4   35 1
    12    4   36 1
    13    4   37 1
    14    5   10 ar
    15    5    6 ar
    16    6    7 ar
    17    6   38 1
    18    7    8 ar
    19    7   39 1
    20    8    9 ar
    21    8   11 1
    22    9   10 ar
    23    9   40 1
    24   10   41 1
    25   11   12 1
    26   11   13 1
    27   11   26 1
    28   13   14 1
    29   13   42 1
    30   13   43 1
    31   14   15 am
    32   14   44 1
    33   15   16 2
    34   15   17 1
    35   17   18 1
    36   17   45 1
    37   17   46 1
    38   18   19 1
    39   19   24 ar
    40   19   20 ar
    41   20   21 ar
    42   20   47 1
    43   21   22 ar
    44   21   48 1
    45   22   23 ar
    46   22   49 1
    47   23   24 ar
    48   23   50 1
    49   24   25 1
    50   26   27 1
    51   26   28 1
    52   26   57 1
    53   27   51 1
    54   27   52 1
    55   27   53 1
    56   28   54 1
    57   28   55 1
    58   28   56 1
