@<TRIPOS>MOLECULE
ZINC34761036
   57    59     0     0     0
SMALL
USER_CHARGES

@<TRIPOS>ATOM
      1 C1          0.5141    1.4969    0.4763 C.3       1 <0>        -0.1476
      2 C2          0.5439   -0.0328    0.4844 C.3       1 <0>        -0.1107
      3 C3          1.0814   -0.5395   -0.8555 C.3       1 <0>        -0.1083
      4 S1          1.1168   -2.3531   -0.8458 S.3       1 <0>         0.0184
      5 C4          1.7503   -2.7755   -2.4348 C.ar      1 <0>         0.3289
      6 N1          1.8990   -4.0551   -2.7579 N.ar      1 <0>        -0.5179
      7 C5          2.3692   -4.4324   -3.9345 C.ar      1 <0>         0.4738
      8 C6          2.7296   -3.4425   -4.8909 C.ar      1 <0>        -0.1829
      9 C7          3.2613   -3.6008   -6.2342 C.2       1 <0>        -0.0995
     10 C8          3.5306   -2.5094   -6.9646 C.2       1 <0>        -0.1155
     11 S2          3.0824   -1.1640   -5.8840 S.3       1 <0>         0.1274
     12 C9          2.5453   -2.1047   -4.4799 C.ar      1 <0>         0.1332
     13 N2          2.0645   -1.8099   -3.2877 N.ar      1 <0>        -0.4818
     14 C10         4.0815   -2.4370   -8.3654 C.3       1 <0>        -0.0782
     15 C11         3.5075   -4.9759   -6.7993 C.3       1 <0>        -0.0789
     16 C12         2.3058   -5.4026   -7.6447 C.3       1 <0>        -0.1527
     17 N3          2.5096   -5.7756   -4.2325 N.pl3     1 <0>        -0.6581
     18 C13         3.7431   -6.5011   -3.8915 C.3       1 <0>         0.1196
     19 C14         3.3617   -7.7819   -3.1418 C.3       1 <0>        -0.0239
     20 N4          2.4076   -8.5540   -3.9478 N.4       1 <0>        -0.3779
     21 C15         1.1575   -7.7993   -4.1019 C.3       1 <0>        -0.0303
     22 C16         1.4274   -6.5208   -4.8940 C.3       1 <0>         0.1146
     23 C17         2.1269   -9.8320   -3.2800 C.3       1 <0>         0.0349
     24 C18         1.2451  -10.6770   -4.1629 C.2       1 <0>        -0.1958
     25 C19         1.7788  -11.5689   -4.9602 C.2       1 <0>        -0.1135
     26 C20        -0.2505  -10.4960   -4.1286 C.3       1 <0>        -0.1337
     27 H1          1.5230    1.8792    0.3215 H         1 <0>         0.0596
     28 H2         -0.1333    1.8434   -0.3293 H         1 <0>         0.0596
     29 H3          0.1312    1.8579    1.4309 H         1 <0>         0.0667
     30 H4          1.1913   -0.3792    1.2900 H         1 <0>         0.0752
     31 H5         -0.4650   -0.4151    0.6392 H         1 <0>         0.0752
     32 H6          0.4340   -0.1930   -1.6610 H         1 <0>         0.0975
     33 H7          2.0903   -0.1572   -1.0102 H         1 <0>         0.0976
     34 H8          3.2584   -2.4358   -9.0799 H         1 <0>         0.0886
     35 H9          4.6635   -1.5225   -8.4801 H         1 <0>         0.0829
     36 H10         4.7211   -3.3002   -8.5493 H         1 <0>         0.0880
     37 H11         4.4019   -4.9580   -7.4221 H         1 <0>         0.0772
     38 H12         3.6474   -5.6845   -5.9829 H         1 <0>         0.0802
     39 H13         2.4407   -6.4328   -7.9741 H         1 <0>         0.0601
     40 H14         1.3968   -5.3281   -7.0477 H         1 <0>         0.0542
     41 H15         2.2236   -4.7508   -8.5144 H         1 <0>         0.0635
     42 H16         4.2815   -6.7573   -4.8039 H         1 <0>         0.0918
     43 H17         4.3708   -5.8773   -3.2552 H         1 <0>         0.1174
     44 H18         4.2559   -8.3797   -2.9655 H         1 <0>         0.1405
     45 H19         2.9043   -7.5217   -2.1873 H         1 <0>         0.1364
     46 H20         0.4274   -8.4100   -4.6330 H         1 <0>         0.1435
     47 H21         0.7667   -7.5387   -3.1183 H         1 <0>         0.1344
     48 H22         0.5249   -5.9100   -4.9202 H         1 <0>         0.1148
     49 H23         1.7280   -6.7790   -5.9094 H         1 <0>         0.0958
     50 H24         3.0634  -10.3572   -3.0924 H         1 <0>         0.1343
     51 H25         1.6199   -9.6437   -2.3336 H         1 <0>         0.1345
     52 H26         1.1469  -12.1745   -5.5930 H         1 <0>         0.1236
     53 H27         2.8507  -11.6987   -4.9849 H         1 <0>         0.1121
     54 H28        -0.5057   -9.7156   -3.4116 H         1 <0>         0.0679
     55 H29        -0.6047  -10.2094   -5.1188 H         1 <0>         0.0789
     56 H30        -0.7231  -11.4319   -3.8305 H         1 <0>         0.0847
     57 H31         2.8053   -8.7329   -4.8577 H         1 <0>         0.4199
@<TRIPOS>BOND
     1    1    2 1
     2    1   27 1
     3    1   28 1
     4    1   29 1
     5    2    3 1
     6    2   30 1
     7    2   31 1
     8    3    4 1
     9    3   32 1
    10    3   33 1
    11    4    5 1
    12    5   13 ar
    13    5    6 ar
    14    6    7 ar
    15    7    8 ar
    16    7   17 1
    17    8   12 ar
    18    8    9 1
    19    9   10 2
    20    9   15 1
    21   10   11 1
    22   10   14 1
    23   11   12 1
    24   12   13 ar
    25   14   34 1
    26   14   35 1
    27   14   36 1
    28   15   16 1
    29   15   37 1
    30   15   38 1
    31   16   39 1
    32   16   40 1
    33   16   41 1
    34   17   22 1
    35   17   18 1
    36   18   19 1
    37   18   42 1
    38   18   43 1
    39   19   20 1
    40   19   44 1
    41   19   45 1
    42   20   21 1
    43   20   23 1
    44   20   57 1
    45   21   22 1
    46   21   46 1
    47   21   47 1
    48   22   48 1
    49   22   49 1
    50   23   24 1
    51   23   50 1
    52   23   51 1
    53   24   25 2
    54   24   26 1
    55   25   52 1
    56   25   53 1
    57   26   54 1
    58   26   55 1
    59   26   56 1
