@<TRIPOS>MOLECULE
ZINC36750457
   28    29     0     0     0
SMALL
USER_CHARGES

@<TRIPOS>ATOM
      1 C1         -0.0870    1.2538   -0.0172 C.ar      1 <0>        -0.1826
      2 C2          1.0692    2.0024   -0.0162 C.ar      1 <0>        -0.0176
      3 C3          2.3127    1.3650   -0.0295 C.ar      1 <0>        -0.2371
      4 C4          2.3731   -0.0380   -0.0438 C.ar      1 <0>         0.3017
      5 C5          1.1974   -0.7765   -0.0446 C.ar      1 <0>        -0.2052
      6 C6         -0.0245   -0.1319   -0.0313 C.ar      1 <0>         0.0500
      7 Cl1        -1.4905   -1.0617   -0.0318 Cl        1 <0>        -0.0563
      8 N1          3.6028   -0.6835   -0.0576 N.pl3     1 <0>        -0.8464
      9 C7          3.5531    2.1602   -0.0291 C.2       1 <0>         0.5805
     10 O1          4.6317    1.6045    0.0548 O.2       1 <0>        -0.5261
     11 N2          3.4925    3.5035   -0.1215 N.am      1 <0>        -0.6618
     12 C8          4.6703    4.2508   -0.2389 C.ar      1 <0>         0.1264
     13 C9          5.8146    3.6676   -0.7655 C.ar      1 <0>        -0.0787
     14 C10         6.9761    4.4081   -0.8801 C.ar      1 <0>        -0.0813
     15 C11         6.9998    5.7295   -0.4702 C.ar      1 <0>        -0.0801
     16 C12         5.8624    6.3140    0.0553 C.ar      1 <0>        -0.1232
     17 C13         4.6950    5.5808    0.1666 C.ar      1 <0>         0.0828
     18 F1          3.5820    6.1539    0.6746 F         1 <0>        -0.1306
     19 Br1         8.5352    3.6140   -1.5974 Br        1 <0>        -0.0315
     20 H1         -1.0471    1.7482   -0.0024 H         1 <0>         0.1399
     21 H2          1.0148    3.0809   -0.0056 H         1 <0>         0.1336
     22 H3          1.2380   -1.8556   -0.0559 H         1 <0>         0.1418
     23 H4          4.4216   -0.1689    0.0175 H         1 <0>         0.4199
     24 H5          3.6428   -1.6490   -0.1423 H         1 <0>         0.3994
     25 H6          2.6327    3.9523   -0.1068 H         1 <0>         0.4177
     26 H7          5.7975    2.6361   -1.0851 H         1 <0>         0.1664
     27 H8          7.9089    6.3054   -0.5606 H         1 <0>         0.1465
     28 H9          5.8843    7.3454    0.3750 H         1 <0>         0.1518
@<TRIPOS>BOND
     1    1    6 ar
     2    1    2 ar
     3    1   20 1
     4    2    3 ar
     5    2   21 1
     6    3    4 ar
     7    3    9 1
     8    4    5 ar
     9    4    8 1
    10    5    6 ar
    11    5   22 1
    12    6    7 1
    13    8   23 1
    14    8   24 1
    15    9   10 2
    16    9   11 am
    17   11   12 1
    18   11   25 1
    19   12   17 ar
    20   12   13 ar
    21   13   14 ar
    22   13   26 1
    23   14   15 ar
    24   14   19 1
    25   15   16 ar
    26   15   27 1
    27   16   17 ar
    28   16   28 1
    29   17   18 1
