@<TRIPOS>MOLECULE
ZINC63187737
   56    60     0     0     0
SMALL
USER_CHARGES

@<TRIPOS>ATOM
      1 C1         -0.0163    1.3482    0.0095 C.ar      1 <0>        -0.1455
      2 C2          1.1658    2.1014    0.0022 C.ar      1 <0>         0.0570
      3 C3          2.3912    1.5352   -0.0125 C.ar      1 <0>        -0.2098
      4 C4          2.5288    0.1198   -0.0218 C.ar      1 <0>         0.3291
      5 N1          3.5868   -0.6543   -0.0369 N.pl3     1 <0>        -0.5830
      6 C5          3.1432   -2.0528   -0.0408 C.3       1 <0>         0.0614
      7 C6          1.6315   -2.0084   -0.0255 C.2       1 <0>         0.0603
      8 C7          1.2951   -0.6984   -0.0144 C.ar      1 <0>        -0.1640
      9 C8          0.0021   -0.0041    0.0020 C.ar      1 <0>        -0.0177
     10 C9          0.6905   -3.1856   -0.0239 C.3       1 <0>        -0.0938
     11 C10         0.4565   -3.6534   -1.4617 C.3       1 <0>         0.1021
     12 H1          1.4060   -3.8572   -1.9568 H         1 <0>         0.1396
     13 C11        -0.4316   -4.8815   -1.4851 C.2       1 <0>         0.5337
     14 O1         -0.2009   -5.9617   -0.9852 O.2       1 <0>        -0.4398
     15 N2         -1.5314   -4.5228   -2.1764 N.am      1 <0>        -0.5567
     16 C12        -1.4623   -3.2519   -2.5888 C.2       1 <0>         0.7100
     17 O2         -2.3351   -2.7017   -3.2312 O.2       1 <0>        -0.5160
     18 N3         -0.3153   -2.6494   -2.2143 N.am      1 <0>        -0.7314
     19 C13        -2.6625   -5.4145   -2.4440 C.3       1 <0>         0.0971
     20 C14        -3.6702   -5.2961   -1.3297 C.2       1 <0>         0.5111
     21 O3         -3.4638   -4.5411   -0.4032 O.2       1 <0>        -0.5232
     22 N4         -4.8007   -6.0291   -1.3627 N.am      1 <0>        -0.7176
     23 C15        -5.7802   -5.9139   -0.2795 C.3       1 <0>         0.2844
     24 H2         -5.8052   -4.8852    0.0800 H         1 <0>         0.1200
     25 C16        -7.1437   -6.3002   -0.7920 C.ar      1 <0>        -0.1124
     26 C17        -7.2793   -7.3722   -1.6542 C.ar      1 <0>        -0.0787
     27 C18        -8.5292   -7.7277   -2.1245 C.ar      1 <0>        -0.1466
     28 C19        -9.6460   -7.0095   -1.7319 C.ar      1 <0>         0.1115
     29 C20        -9.5090   -5.9360   -0.8683 C.ar      1 <0>        -0.1476
     30 C21        -8.2587   -5.5857   -0.3951 C.ar      1 <0>        -0.0680
     31 F1        -10.8684   -7.3558   -2.1914 F         1 <0>        -0.1333
     32 C22        -5.3899   -6.8315    0.8505 C.2       1 <0>        -0.1620
     33 C23        -5.4543   -6.6150    2.1870 C.2       1 <0>        -0.1358
     34 C24        -5.0371   -7.6123    3.0484 C.2       1 <0>        -0.1583
     35 C25        -4.5760   -8.7773    2.5312 C.2       1 <0>        -0.1653
     36 S1         -4.7299   -8.4886    0.7762 S.3       1 <0>         0.0470
     37 H3         -0.9665    1.8612    0.0259 H         1 <0>         0.1592
     38 H4          1.0933    3.1789    0.0083 H         1 <0>         0.1620
     39 H5          3.2717    2.1606   -0.0175 H         1 <0>         0.1615
     40 H6          3.4952   -2.5561   -0.9413 H         1 <0>         0.1753
     41 H7          3.5129   -2.5667    0.8465 H         1 <0>         0.1778
     42 H8         -0.9210   -0.5647    0.0081 H         1 <0>         0.1607
     43 H9          1.1268   -3.9987    0.5563 H         1 <0>         0.1394
     44 H10        -0.2596   -2.8905    0.4214 H         1 <0>         0.1248
     45 H11        -0.0500   -1.7354   -2.4015 H         1 <0>         0.4395
     46 H12        -3.1302   -5.1349   -3.3880 H         1 <0>         0.1362
     47 H13        -2.3076   -6.4433   -2.5051 H         1 <0>         0.1342
     48 H14        -4.9658   -6.6329   -2.1037 H         1 <0>         0.4068
     49 H15        -6.4080   -7.9320   -1.9606 H         1 <0>         0.1302
     50 H16        -8.6349   -8.5650   -2.7984 H         1 <0>         0.1419
     51 H17       -10.3794   -5.3749   -0.5616 H         1 <0>         0.1422
     52 H18        -8.1521   -4.7511    0.2820 H         1 <0>         0.1371
     53 H19        -5.8257   -5.6772    2.5730 H         1 <0>         0.1328
     54 H20        -5.0777   -7.4653    4.1176 H         1 <0>         0.1360
     55 H21        -4.2133   -9.6541    3.0471 H         1 <0>         0.1875
     56 H22         4.5087   -0.3528   -0.0446 H         1 <0>         0.4569
@<TRIPOS>BOND
     1    1    9 ar
     2    1    2 ar
     3    1   37 1
     4    2    3 ar
     5    2   38 1
     6    3    4 ar
     7    3   39 1
     8    4    8 ar
     9    4    5 2
    10    5    6 1
    11    5   56 1
    12    6    7 1
    13    6   40 1
    14    6   41 1
    15    7    8 2
    16    7   10 1
    17    8    9 ar
    18    9   42 1
    19   10   11 1
    20   10   43 1
    21   10   44 1
    22   11   12 1
    23   11   18 1
    24   11   13 1
    25   13   14 2
    26   13   15 am
    27   15   16 am
    28   15   19 1
    29   16   17 2
    30   16   18 am
    31   18   45 1
    32   19   20 1
    33   19   46 1
    34   19   47 1
    35   20   21 2
    36   20   22 am
    37   22   23 1
    38   22   48 1
    39   23   24 1
    40   23   25 1
    41   23   32 1
    42   25   30 ar
    43   25   26 ar
    44   26   27 ar
    45   26   49 1
    46   27   28 ar
    47   27   50 1
    48   28   29 ar
    49   28   31 1
    50   29   30 ar
    51   29   51 1
    52   30   52 1
    53   32   36 1
    54   32   33 2
    55   33   34 1
    56   33   53 1
    57   34   35 2
    58   34   54 1
    59   35   36 1
    60   35   55 1
