@<TRIPOS>MOLECULE
ZINC49376936
   33    35     0     0     0
SMALL
USER_CHARGES

@<TRIPOS>ATOM
      1 C1         -0.0167    1.3802    0.0096 C.ar      1 <0>        -0.1391
      2 C2          1.1709    2.0871    0.0021 C.ar      1 <0>        -0.0603
      3 C3          2.3779    1.4119   -0.0135 C.ar      1 <0>        -0.0929
      4 C4          2.3974    0.0286   -0.0216 C.ar      1 <0>        -0.0558
      5 C5          1.2109   -0.6794   -0.0141 C.ar      1 <0>        -0.1287
      6 C6          0.0021   -0.0041    0.0020 C.ar      1 <0>         0.1176
      7 F1         -1.1584   -0.6957    0.0098 F         1 <0>        -0.1291
      8 C7          3.7130   -0.7062   -0.0391 C.3       1 <0>         0.1563
      9 N1          4.2701   -0.7426    1.3154 N.am      1 <0>        -0.7201
     10 C8          5.4502   -1.3527    1.5425 C.2       1 <0>         0.6121
     11 O1          6.0530   -1.8733    0.6224 O.2       1 <0>        -0.5180
     12 C9          6.0075   -1.3891    2.8977 C.2       1 <0>        -0.2598
     13 C10         7.1946   -1.9532    3.3397 C.2       1 <0>         0.0050
     14 C11         7.4515   -1.8269    4.6838 C.2       1 <0>        -0.1842
     15 C12         6.5552   -1.1785    5.4680 C.2       1 <0>        -0.2147
     16 S1          5.3396   -0.7131    4.4060 S.3       1 <0>         0.2006
     17 C13         8.1425   -2.6603    2.4056 C.3       1 <0>        -0.1080
     18 C14         9.3168   -3.4166    3.0300 C.3       1 <0>        -0.1762
     19 C15         9.5623   -2.1031    2.2849 C.3       1 <0>        -0.1614
     20 Br1         4.0022    2.3801   -0.0245 Br        1 <0>        -0.0273
     21 H1         -0.9591    1.9075    0.0260 H         1 <0>         0.1488
     22 H2          1.1564    3.1670    0.0080 H         1 <0>         0.1477
     23 H3          1.2263   -1.7593   -0.0211 H         1 <0>         0.1492
     24 H4          3.5558   -1.7244   -0.3948 H         1 <0>         0.0892
     25 H5          4.4074   -0.1922   -0.7038 H         1 <0>         0.0939
     26 H6          3.7895   -0.3276    2.0487 H         1 <0>         0.4008
     27 H7          8.3546   -2.2386    5.1097 H         1 <0>         0.1399
     28 H8          6.6122   -0.9983    6.5314 H         1 <0>         0.1906
     29 H9          7.6902   -3.0840    1.5089 H         1 <0>         0.1331
     30 H10         9.4037   -3.4027    4.1164 H         1 <0>         0.0960
     31 H11         9.6372   -4.3383    2.5442 H         1 <0>         0.1003
     32 H12        10.0442   -2.1606    1.3089 H         1 <0>         0.1007
     33 H13         9.8107   -1.2250    2.8811 H         1 <0>         0.0940
@<TRIPOS>BOND
     1    1    6 ar
     2    1    2 ar
     3    1   21 1
     4    2    3 ar
     5    2   22 1
     6    3    4 ar
     7    3   20 1
     8    4    5 ar
     9    4    8 1
    10    5    6 ar
    11    5   23 1
    12    6    7 1
    13    8    9 1
    14    8   24 1
    15    8   25 1
    16    9   10 am
    17    9   26 1
    18   10   11 2
    19   10   12 1
    20   12   16 1
    21   12   13 2
    22   13   14 1
    23   13   17 1
    24   14   15 2
    25   14   27 1
    26   15   16 1
    27   15   28 1
    28   17   19 1
    29   17   18 1
    30   17   29 1
    31   18   19 1
    32   18   30 1
    33   18   31 1
    34   19   32 1
    35   19   33 1
