@<TRIPOS>MOLECULE
ZINC40742042
   45    46     0     0     0
SMALL
USER_CHARGES

@<TRIPOS>ATOM
      1 C1         -0.0187    1.5258    0.0104 C.3       1 <0>        -0.1909
      2 C2          0.0021   -0.0041    0.0020 C.3       1 <0>        -0.0108
      3 N1          0.6897   -0.4778   -1.2066 N.4       1 <0>        -0.5109
      4 C3          0.7096   -1.9467   -1.2147 C.3       1 <0>         0.0477
      5 C4          1.4150   -2.4327   -2.4546 C.ar      1 <0>        -0.1183
      6 C5          0.6952   -2.6606   -3.6130 C.ar      1 <0>        -0.1775
      7 C6          1.3416   -3.1079   -4.7540 C.ar      1 <0>         0.1396
      8 C7          2.7156   -3.3265   -4.7313 C.ar      1 <0>         0.1082
      9 C8          3.4319   -3.0957   -3.5671 C.ar      1 <0>        -0.0210
     10 C9          2.7806   -2.6441   -2.4327 C.ar      1 <0>        -0.1123
     11 Cl1         5.1461   -3.3676   -3.5339 Cl        1 <0>        -0.0154
     12 O1          3.3545   -3.7660   -5.8489 O.3       1 <0>        -0.3082
     13 C10         3.8568   -2.7707   -6.7428 C.3       1 <0>         0.1148
     14 C11         4.5278   -3.4403   -7.9143 C.ar      1 <0>        -0.0974
     15 C12         4.5725   -4.8200   -7.9888 C.ar      1 <0>        -0.0529
     16 C13         5.1875   -5.4352   -9.0624 C.ar      1 <0>        -0.1458
     17 C14         5.7596   -4.6696  -10.0647 C.ar      1 <0>         0.1220
     18 C15         5.7145   -3.2882   -9.9903 C.ar      1 <0>        -0.1435
     19 C16         5.0938   -2.6739   -8.9174 C.ar      1 <0>        -0.0024
     20 Cl2         5.0314   -0.9414   -8.8262 Cl        1 <0>        -0.0517
     21 F1          6.3617   -5.2707  -11.1141 F         1 <0>        -0.1261
     22 O2          0.6346   -3.3332   -5.8936 O.3       1 <0>        -0.2904
     23 C17        -0.7723   -3.0880   -5.8434 C.3       1 <0>         0.0515
     24 C18        -1.3925   -3.3949   -7.2080 C.3       1 <0>        -0.1578
     25 H1          1.0039    1.9031    0.0027 H         1 <0>         0.0814
     26 H2         -0.5459    1.8868   -0.8726 H         1 <0>         0.0806
     27 H3         -0.5289    1.8773    0.9072 H         1 <0>         0.1083
     28 H4          0.5293   -0.3651    0.8851 H         1 <0>         0.1333
     29 H5         -1.0205   -0.3814    0.0098 H         1 <0>         0.1323
     30 H6          0.2017   -0.1436   -2.0240 H         1 <0>         0.4274
     31 H7          1.2368   -2.3077   -0.3316 H         1 <0>         0.1448
     32 H8         -0.3130   -2.3239   -1.2069 H         1 <0>         0.1427
     33 H9         -0.3711   -2.4903   -3.6284 H         1 <0>         0.1478
     34 H10         3.3399   -2.4607   -1.5272 H         1 <0>         0.1500
     35 H11         3.0322   -2.1539   -7.1002 H         1 <0>         0.0791
     36 H12         4.5792   -2.1439   -6.2198 H         1 <0>         0.0775
     37 H13         4.1267   -5.4174   -7.2072 H         1 <0>         0.1519
     38 H14         5.2223   -6.5131   -9.1198 H         1 <0>         0.1478
     39 H15         6.1607   -2.6902  -10.7712 H         1 <0>         0.1525
     40 H16        -1.2258   -3.7274   -5.0861 H         1 <0>         0.0684
     41 H17        -0.9501   -2.0428   -5.5903 H         1 <0>         0.0645
     42 H18        -0.9390   -2.7554   -7.9653 H         1 <0>         0.0711
     43 H19        -1.2147   -4.4400   -7.4611 H         1 <0>         0.0731
     44 H20        -2.4657   -3.2078   -7.1697 H         1 <0>         0.0862
     45 H21         1.6363   -0.1286   -1.2138 H         1 <0>         0.4290
@<TRIPOS>BOND
     1    1    2 1
     2    1   25 1
     3    1   26 1
     4    1   27 1
     5    2    3 1
     6    2   28 1
     7    2   29 1
     8    3    4 1
     9    3   30 1
    10    3   45 1
    11    4    5 1
    12    4   31 1
    13    4   32 1
    14    5   10 ar
    15    5    6 ar
    16    6    7 ar
    17    6   33 1
    18    7    8 ar
    19    7   22 1
    20    8    9 ar
    21    8   12 1
    22    9   10 ar
    23    9   11 1
    24   10   34 1
    25   12   13 1
    26   13   14 1
    27   13   35 1
    28   13   36 1
    29   14   19 ar
    30   14   15 ar
    31   15   16 ar
    32   15   37 1
    33   16   17 ar
    34   16   38 1
    35   17   18 ar
    36   17   21 1
    37   18   19 ar
    38   18   39 1
    39   19   20 1
    40   22   23 1
    41   23   24 1
    42   23   40 1
    43   23   41 1
    44   24   42 1
    45   24   43 1
    46   24   44 1
