@<TRIPOS>MOLECULE
ZINC66092159
   68    70     0     0     0
SMALL
USER_CHARGES

@<TRIPOS>ATOM
      1 C1          0.2955    0.0120    0.9712 C.3       1 <0>        -0.1834
      2 C2         -0.0486   -1.1682    0.0604 C.3       1 <0>         0.0693
      3 N1          0.6232   -1.0009   -1.2307 N.am      1 <0>        -0.5467
      4 C3          2.0151   -1.1082   -1.3138 C.ar      1 <0>         0.1540
      5 C4          2.7460   -1.5467   -0.2172 C.ar      1 <0>        -0.1605
      6 C5          4.1204   -1.6520   -0.3027 C.ar      1 <0>        -0.0982
      7 C6          4.7689   -1.3215   -1.4786 C.ar      1 <0>        -0.1461
      8 C7          4.0441   -0.8846   -2.5722 C.ar      1 <0>        -0.0978
      9 C8          2.6690   -0.7821   -2.4949 C.ar      1 <0>        -0.1625
     10 C9         -0.1002   -0.7434   -2.3383 C.2       1 <0>         0.5662
     11 O1          0.4468   -0.6905   -3.4231 O.2       1 <0>        -0.5160
     12 C10        -1.5553   -0.5259   -2.2348 C.ar      1 <0>        -0.2001
     13 C11        -2.1021    0.0089   -1.0645 C.ar      1 <0>        -0.0553
     14 C12        -3.4601    0.2111   -0.9712 C.ar      1 <0>        -0.1992
     15 C13        -4.2892   -0.1167   -2.0405 C.ar      1 <0>         0.2475
     16 C14        -3.7479   -0.6499   -3.2070 C.ar      1 <0>        -0.2096
     17 C15        -2.3900   -0.8487   -3.3089 C.ar      1 <0>        -0.0046
     18 N2         -5.6611    0.0884   -1.9429 N.pl3     1 <0>        -0.7281
     19 C16        -6.5350   -0.2561   -3.0671 C.3       1 <0>         0.1035
     20 C17        -7.9639    0.0607   -2.7079 C.2       1 <0>         0.5110
     21 O2         -8.2264    0.5281   -1.6200 O.2       1 <0>        -0.5065
     22 N3         -8.9501   -0.1755   -3.5956 N.am      1 <0>        -0.6692
     23 C18       -10.2566    0.2174   -3.3073 C.ar      1 <0>         0.1716
     24 C19       -10.4869    1.3807   -2.5796 C.ar      1 <0>        -0.1278
     25 C20       -11.7756    1.7714   -2.2931 C.ar      1 <0>        -0.0357
     26 C21       -12.8529    0.9985   -2.7346 C.ar      1 <0>        -0.1505
     27 C22       -12.6180   -0.1691   -3.4657 C.ar      1 <0>        -0.0641
     28 C23       -11.3270   -0.5516   -3.7529 C.ar      1 <0>        -0.1501
     29 C24       -14.2358    1.4141   -2.4290 C.2       1 <0>         0.5608
     30 O3        -14.4386    2.4300   -1.7924 O.2       1 <0>        -0.5337
     31 N4        -15.2736    0.6676   -2.8554 N.am      1 <0>        -0.7270
     32 C25       -16.6462    1.0801   -2.5521 C.3       1 <0>         0.1217
     33 C26       -17.6265    0.0666   -3.1460 C.3       1 <0>        -0.1321
     34 C27       -19.0600    0.4974   -2.8292 C.3       1 <0>         0.0635
     35 O4        -19.9755   -0.4492   -3.3839 O.3       1 <0>        -0.3929
     36 C28       -21.3495   -0.1386   -3.1436 C.3       1 <0>         0.0312
     37 H1          1.3739    0.0500    1.1249 H         1 <0>         0.0716
     38 H2         -0.0380    0.9395    0.5056 H         1 <0>         0.0658
     39 H3         -0.2044   -0.1125    1.9318 H         1 <0>         0.0779
     40 H4          0.2849   -2.0957    0.5260 H         1 <0>         0.0818
     41 H5         -1.1270   -1.2062   -0.0934 H         1 <0>         0.1166
     42 H6          2.2402   -1.8046    0.7015 H         1 <0>         0.1251
     43 H7          4.6894   -1.9926    0.5497 H         1 <0>         0.1238
     44 H8          5.8438   -1.4044   -1.5428 H         1 <0>         0.1203
     45 H9          4.5536   -0.6269   -3.4889 H         1 <0>         0.1239
     46 H10         2.1031   -0.4447   -3.3507 H         1 <0>         0.1747
     47 H11        -1.4595    0.2627   -0.2345 H         1 <0>         0.1489
     48 H12        -3.8831    0.6242   -0.0675 H         1 <0>         0.1307
     49 H13        -4.3938   -0.9038   -4.0345 H         1 <0>         0.1291
     50 H14        -1.9701   -1.2581   -4.2158 H         1 <0>         0.1346
     51 H15        -6.0394    0.4595   -1.1304 H         1 <0>         0.4151
     52 H16        -6.2440    0.3223   -3.9439 H         1 <0>         0.1019
     53 H17        -6.4427   -1.3198   -3.2864 H         1 <0>         0.1003
     54 H18        -8.7511   -0.6187   -4.4352 H         1 <0>         0.4174
     55 H19        -9.6539    1.9776   -2.2387 H         1 <0>         0.1408
     56 H20       -11.9537    2.6741   -1.7276 H         1 <0>         0.1419
     57 H21       -13.4483   -0.7689   -3.8081 H         1 <0>         0.1317
     58 H22       -11.1449   -1.4518   -4.3210 H         1 <0>         0.1353
     59 H23       -15.1118   -0.1429   -3.3633 H         1 <0>         0.4011
     60 H24       -16.7814    1.1260   -1.4714 H         1 <0>         0.0728
     61 H25       -16.8340    2.0632   -2.9838 H         1 <0>         0.0729
     62 H26       -17.4913    0.0206   -4.2266 H         1 <0>         0.0795
     63 H27       -17.4387   -0.9165   -2.7142 H         1 <0>         0.0795
     64 H28       -19.1951    0.5433   -1.7485 H         1 <0>         0.0541
     65 H29       -19.2477    1.4805   -3.2609 H         1 <0>         0.0541
     66 H30       -21.9796   -0.9043   -3.5961 H         1 <0>         0.0881
     67 H31       -21.5321   -0.1059   -2.0695 H         1 <0>         0.0430
     68 H32       -21.5847    0.8313   -3.5819 H         1 <0>         0.0431
@<TRIPOS>BOND
     1    1    2 1
     2    1   37 1
     3    1   38 1
     4    1   39 1
     5    2    3 1
     6    2   40 1
     7    2   41 1
     8    3    4 1
     9    3   10 am
    10    4    9 ar
    11    4    5 ar
    12    5    6 ar
    13    5   42 1
    14    6    7 ar
    15    6   43 1
    16    7    8 ar
    17    7   44 1
    18    8    9 ar
    19    8   45 1
    20    9   46 1
    21   10   11 2
    22   10   12 1
    23   12   17 ar
    24   12   13 ar
    25   13   14 ar
    26   13   47 1
    27   14   15 ar
    28   14   48 1
    29   15   16 ar
    30   15   18 1
    31   16   17 ar
    32   16   49 1
    33   17   50 1
    34   18   19 1
    35   18   51 1
    36   19   20 1
    37   19   52 1
    38   19   53 1
    39   20   21 2
    40   20   22 am
    41   22   23 1
    42   22   54 1
    43   23   28 ar
    44   23   24 ar
    45   24   25 ar
    46   24   55 1
    47   25   26 ar
    48   25   56 1
    49   26   27 ar
    50   26   29 1
    51   27   28 ar
    52   27   57 1
    53   28   58 1
    54   29   30 2
    55   29   31 am
    56   31   32 1
    57   31   59 1
    58   32   33 1
    59   32   60 1
    60   32   61 1
    61   33   34 1
    62   33   62 1
    63   33   63 1
    64   34   35 1
    65   34   64 1
    66   34   65 1
    67   35   36 1
    68   36   66 1
    69   36   67 1
    70   36   68 1
