@<TRIPOS>MOLECULE
ZINC11840015
   69    72     0     0     0
SMALL
USER_CHARGES
1-[4-(dimethylsulfamoylamino)phenyl]-4-[[(3R)-3-(2-furyl)-3-phenyl-propyl]amino]piperidine
@<TRIPOS>ATOM
      1 C1          1.0052    3.7795   -1.9363 C.3       1 <0>         0.0846
      2 N1          1.4792    2.4216   -1.6577 N.pl3     1 <0>        -1.0069
      3 C2          2.0114    1.5944   -2.7434 C.3       1 <0>         0.0822
      4 S1          1.4135    1.8217   -0.1156 S.o2      1 <0>         2.7837
      5 O1          1.2790    2.9406    0.7500 O.2       1 <0>        -0.9664
      6 O2          2.4800    0.8902    0.0036 O.2       1 <0>        -0.9623
      7 N2          0.0096    0.9528    0.0124 N.pl3     1 <0>        -1.0691
      8 C3         -1.2255    1.5888   -0.1611 C.ar      1 <0>         0.1364
      9 C4         -1.4726    2.8065    0.4589 C.ar      1 <0>        -0.1273
     10 C5         -2.6888    3.4366    0.2831 C.ar      1 <0>        -0.1402
     11 C6         -3.6686    2.8471   -0.5047 C.ar      1 <0>         0.0869
     12 C7         -3.4236    1.6267   -1.1201 C.ar      1 <0>        -0.1139
     13 C8         -2.2055    0.9992   -0.9486 C.ar      1 <0>        -0.1043
     14 N3         -4.9034    3.4835   -0.6789 N.pl3     1 <0>        -0.4871
     15 C9         -6.0099    2.6024   -0.2845 C.3       1 <0>         0.0566
     16 C10        -7.3432    3.2727   -0.6234 C.3       1 <0>        -0.1374
     17 C11        -7.4405    4.6086    0.1186 C.3       1 <0>         0.0257
     18 C12        -6.2504    5.4889   -0.2731 C.3       1 <0>        -0.1398
     19 C13        -4.9487    4.7543    0.0556 C.3       1 <0>         0.0495
     20 C14        -9.8063    4.8187    0.5888 C.3       1 <0>        -0.0074
     21 C15       -11.0900    5.5428    0.1780 C.3       1 <0>        -0.1445
     22 C16       -12.2502    5.0582    1.0498 C.3       1 <0>         0.0536
     23 H1        -12.3241    3.9726    0.9857 H         1 <0>         0.1155
     24 C17       -13.5355    5.6787    0.5658 C.ar      1 <0>        -0.1033
     25 C18       -13.6800    7.0534    0.5598 C.ar      1 <0>        -0.1044
     26 C19       -14.8573    7.6227    0.1117 C.ar      1 <0>        -0.1170
     27 C20       -15.8936    6.8169   -0.3214 C.ar      1 <0>        -0.1073
     28 C21       -15.7509    5.4420   -0.3108 C.ar      1 <0>        -0.1156
     29 C22       -14.5720    4.8729    0.1332 C.ar      1 <0>        -0.1065
     30 C23       -12.0056    5.4614    2.4811 C.2       1 <0>        -0.0328
     31 C24       -11.8991    4.6227    3.5274 C.2       1 <0>        -0.1928
     32 C25       -11.6705    5.4217    4.6712 C.2       1 <0>        -0.2127
     33 C26       -11.6593    6.7014    4.2567 C.2       1 <0>        -0.0285
     34 O3        -11.8628    6.7194    2.9293 O.3       1 <0>        -0.1722
     35 H2          0.6486    4.2364   -1.0132 H         1 <0>         0.0851
     36 H3          1.8235    4.3736   -2.3433 H         1 <0>         0.0691
     37 H4          0.1910    3.7389   -2.6598 H         1 <0>         0.0612
     38 H5          1.2174    0.9625   -3.1414 H         1 <0>         0.0565
     39 H6          2.3954    2.2373   -3.5354 H         1 <0>         0.0824
     40 H7          2.8173    0.9678   -2.3613 H         1 <0>         0.0823
     41 H8          0.0431    0.0025    0.2035 H         1 <0>         0.4268
     42 H9         -0.7120    3.2630    1.0749 H         1 <0>         0.1583
     43 H10        -2.8793    4.3858    0.7617 H         1 <0>         0.1335
     44 H11        -4.1856    1.1684   -1.7331 H         1 <0>         0.1312
     45 H12        -2.0150    0.0499   -1.4272 H         1 <0>         0.1341
     46 H13        -5.9313    1.6576   -0.8224 H         1 <0>         0.1035
     47 H14        -5.9600    2.4147    0.7881 H         1 <0>         0.0566
     48 H15        -8.1645    2.6252   -0.3162 H         1 <0>         0.0957
     49 H16        -7.3996    3.4482   -1.6977 H         1 <0>         0.0993
     50 H17        -7.4239    4.4311    1.1939 H         1 <0>         0.1379
     51 H18        -6.2909    6.4247    0.2842 H         1 <0>         0.0978
     52 H19        -6.2893    5.6998   -1.3418 H         1 <0>         0.0994
     53 H20        -4.9038    4.5565    1.1266 H         1 <0>         0.0593
     54 H21        -4.0995    5.3725   -0.2355 H         1 <0>         0.1062
     55 H22        -9.9367    3.7447    0.4560 H         1 <0>         0.1337
     56 H23        -9.5881    5.0315    1.6353 H         1 <0>         0.1318
     57 H24       -10.9597    6.6168    0.3108 H         1 <0>         0.0954
     58 H25       -11.3083    5.3300   -0.8685 H         1 <0>         0.1008
     59 H26       -12.8718    7.6829    0.9019 H         1 <0>         0.1222
     60 H27       -14.9687    8.6969    0.1031 H         1 <0>         0.1264
     61 H28       -16.8147    7.2615   -0.6683 H         1 <0>         0.1276
     62 H29       -16.5606    4.8124   -0.6492 H         1 <0>         0.1284
     63 H30       -14.4606    3.7986    0.1417 H         1 <0>         0.1247
     64 H31       -11.9718    3.5456    3.4988 H         1 <0>         0.1498
     65 H32       -11.5347    5.0720    5.6839 H         1 <0>         0.1526
     66 H33       -11.5114    7.5674    4.8848 H         1 <0>         0.2069
     67 N4         -8.6933    5.2913   -0.2560 N.4       1 <0>        -0.5162
     68 H34        -8.9067    5.0914   -1.2402 H         1 <0>         0.4321
     69 H35        -8.5782    6.3037   -0.1294 H         1 <0>         0.4325
@<TRIPOS>BOND
     1    1    2 1
     2    1   35 1
     3    1   36 1
     4    1   37 1
     5    2    3 1
     6    2    4 1
     7    3   38 1
     8    3   39 1
     9    3   40 1
    10    4    5 2
    11    4    6 2
    12    4    7 1
    13    7    8 1
    14    7   41 1
    15    8   13 ar
    16    8    9 ar
    17    9   10 ar
    18    9   42 1
    19   10   11 ar
    20   10   43 1
    21   11   12 ar
    22   11   14 1
    23   12   13 ar
    24   12   44 1
    25   13   45 1
    26   14   19 1
    27   14   15 1
    28   15   16 1
    29   15   46 1
    30   15   47 1
    31   16   17 1
    32   16   48 1
    33   16   49 1
    34   17   18 1
    35   17   50 1
    36   17   67 1
    37   18   19 1
    38   18   51 1
    39   18   52 1
    40   19   53 1
    41   19   54 1
    42   20   21 1
    43   20   55 1
    44   20   56 1
    45   20   67 1
    46   21   22 1
    47   21   57 1
    48   21   58 1
    49   22   23 1
    50   22   24 1
    51   22   30 1
    52   24   29 ar
    53   24   25 ar
    54   25   26 ar
    55   25   59 1
    56   26   27 ar
    57   26   60 1
    58   27   28 ar
    59   27   61 1
    60   28   29 ar
    61   28   62 1
    62   29   63 1
    63   30   34 1
    64   30   31 2
    65   31   32 1
    66   31   64 1
    67   32   33 2
    68   32   65 1
    69   33   34 1
    70   33   66 1
    71   67   68 1
    72   67   69 1
