@<TRIPOS>MOLECULE
ZINC20061360
   29    30     0     0     0
SMALL
USER_CHARGES
4-amino-N-(2,5-dichlorophenyl)benzenesulfonamide
@<TRIPOS>ATOM
      1 C1          3.3893    4.7157    4.5699 C.ar      1 <0>        -0.2239
      2 C2          3.4729    4.9201    3.2066 C.ar      1 <0>         0.0348
      3 C3          2.3233    5.1162    2.4634 C.ar      1 <0>        -0.7402
      4 C4          1.0870    5.1141    3.0829 C.ar      1 <0>         0.0331
      5 C5          0.9957    4.9046    4.4450 C.ar      1 <0>        -0.2225
      6 C6          2.1485    4.7072    5.1945 C.ar      1 <0>         0.2839
      7 N1          2.0602    4.5003    6.5730 N.pl3     1 <0>        -0.8859
      8 S1          2.4346    5.3767    0.7244 S.o2      1 <0>         2.6936
      9 O1          3.7386    5.8819    0.4720 O.2       1 <0>        -0.9493
     10 O2          1.2590    6.0776    0.3426 O.2       1 <0>        -0.9522
     11 N2          2.3550    3.8894    0.0005 N.pl3     1 <0>        -1.0673
     12 C7          1.2247    3.0866    0.1758 C.ar      1 <0>         0.1940
     13 C8         -0.0339    3.6666    0.2643 C.ar      1 <0>        -0.1635
     14 C9         -1.1498    2.8697    0.4382 C.ar      1 <0>        -0.0005
     15 C10        -1.0142    1.4946    0.5188 C.ar      1 <0>        -0.1170
     16 C11         0.2380    0.9145    0.4363 C.ar      1 <0>        -0.0721
     17 C12         1.3578    1.7057    0.2625 C.ar      1 <0>        -0.0582
     18 Cl1         2.9291    0.9757    0.1530 Cl        1 <0>        -0.0510
     19 Cl2        -2.7237    3.5938    0.5490 Cl        1 <0>        -0.0493
     20 H1          4.2875    4.5629    5.1497 H         1 <0>         0.1296
     21 H2          4.4372    4.9264    2.7203 H         1 <0>         0.1379
     22 H3          0.1915    5.2723    2.5003 H         1 <0>         0.1356
     23 H4          0.0295    4.8986    4.9275 H         1 <0>         0.1296
     24 H5          1.0770    4.4938    7.0663 H         1 <0>         0.4239
     25 H6          2.9738    4.3438    7.1653 H         1 <0>         0.4238
     26 H7          3.1919    3.5334   -0.6183 H         1 <0>         0.4581
     27 H8         -0.1407    4.7392    0.1970 H         1 <0>         0.1799
     28 H9         -1.8881    0.8738    0.6506 H         1 <0>         0.1466
     29 H10         0.3409   -0.1585    0.5034 H         1 <0>         0.1486
@<TRIPOS>BOND
     1    1    6 ar
     2    1    2 ar
     3    1   20 1
     4    2    3 ar
     5    2   21 1
     6    3    4 ar
     7    3    8 1
     8    4    5 ar
     9    4   22 1
    10    5    6 ar
    11    5   23 1
    12    6    7 1
    13    7   24 1
    14    7   25 1
    15    8    9 2
    16    8   10 2
    17    8   11 1
    18   11   12 1
    19   11   26 1
    20   12   17 ar
    21   12   13 ar
    22   13   14 ar
    23   13   27 1
    24   14   15 ar
    25   14   19 1
    26   15   16 ar
    27   15   28 1
    28   16   17 ar
    29   16   29 1
    30   17   18 1
