@<TRIPOS>MOLECULE
ZINC20874305
   55    57     0     0     0
SMALL
USER_CHARGES
N-[(2-chlorophenyl)methyl]-1-[3-ethoxy-4-(p-tolylmethoxy)phenyl]methanamine
@<TRIPOS>ATOM
      1 C1          5.0622   -3.7573    0.7125 C.3       1 <0>        -0.1592
      2 C2          4.2182   -2.4817    0.6761 C.3       1 <0>         0.0526
      3 O1          4.2549   -1.8495    1.9571 O.3       1 <0>        -0.2956
      4 C3          3.5507   -0.6944    2.0960 C.ar      1 <0>         0.1104
      5 C4          2.8403   -0.1811    1.0228 C.ar      1 <0>        -0.1546
      6 C5          2.1246    0.9930    1.1657 C.ar      1 <0>        -0.1669
      7 C6          2.1202    1.6605    2.3765 C.ar      1 <0>        -0.0829
      8 C7          2.8223    1.1508    3.4527 C.ar      1 <0>        -0.1780
      9 C8          3.5417   -0.0256    3.3162 C.ar      1 <0>         0.1427
     10 O2          4.2371   -0.5257    4.3725 O.3       1 <0>        -0.2878
     11 C9          4.1823    0.2140    5.5940 C.3       1 <0>         0.0993
     12 C10         5.0061   -0.4871    6.6432 C.ar      1 <0>        -0.1133
     13 C11         4.4201   -1.4318    7.4648 C.ar      1 <0>        -0.0884
     14 C12         5.1768   -2.0780    8.4243 C.ar      1 <0>        -0.1242
     15 C13         6.5173   -1.7727    8.5686 C.ar      1 <0>        -0.0658
     16 C14         7.1022   -0.8245    7.7501 C.ar      1 <0>        -0.1231
     17 C15         6.3465   -0.1814    6.7877 C.ar      1 <0>        -0.0880
     18 C16         7.3412   -2.4738    9.6177 C.3       1 <0>        -0.1245
     19 C17         1.3525    1.5499   -0.0025 C.3       1 <0>         0.0550
     20 N1         -0.0116    1.0048    0.0076 N.4       1 <0>        -0.5383
     21 C18        -0.7955    1.5269   -1.1198 C.3       1 <0>         0.0421
     22 C19        -2.1857    0.9469   -1.0763 C.ar      1 <0>        -0.1529
     23 C20        -2.5185   -0.1133   -1.8985 C.ar      1 <0>        -0.0770
     24 C21        -3.7923   -0.6482   -1.8556 C.ar      1 <0>        -0.1074
     25 C22        -4.7372   -0.1170   -0.9973 C.ar      1 <0>        -0.0716
     26 C23        -4.4072    0.9463   -0.1786 C.ar      1 <0>        -0.1019
     27 C24        -3.1308    1.4791   -0.2177 C.ar      1 <0>        -0.0245
     28 Cl1        -2.7157    2.8152    0.8101 Cl        1 <0>        -0.0544
     29 H1          5.0339   -4.2439   -0.2736 H         1 <0>         0.0842
     30 H2          4.6577   -4.4430    1.4715 H         1 <0>         0.0708
     31 H3          6.1018   -3.5020    0.9657 H         1 <0>         0.0717
     32 H4          4.6227   -1.7960   -0.0829 H         1 <0>         0.0644
     33 H5          3.1786   -2.7369    0.4228 H         1 <0>         0.0614
     34 H6          2.8459   -0.6980    0.0745 H         1 <0>         0.1418
     35 H7          1.5635    2.5798    2.4829 H         1 <0>         0.1351
     36 H8          2.8137    1.6718    4.3987 H         1 <0>         0.1470
     37 H9          4.5827    1.2251    5.4286 H         1 <0>         0.0769
     38 H10         3.1384    0.2840    5.9337 H         1 <0>         0.0761
     39 H11         3.3719   -1.6674    7.3549 H         1 <0>         0.1232
     40 H12         4.7200   -2.8190    9.0635 H         1 <0>         0.1275
     41 H13         8.1495   -0.5860    7.8628 H         1 <0>         0.1279
     42 H14         6.8034    0.5596    6.1485 H         1 <0>         0.1240
     43 H15         8.3755   -2.1013    9.5810 H         1 <0>         0.0693
     44 H16         7.3345   -3.5569    9.4258 H         1 <0>         0.0747
     45 H17         6.9149   -2.2750   10.6120 H         1 <0>         0.0750
     46 H18         1.3098    2.6463    0.0754 H         1 <0>         0.1365
     47 H19         1.8530    1.2682   -0.9406 H         1 <0>         0.1363
     48 H20         0.0311   -0.0916   -0.0702 H         1 <0>         0.4484
     49 H21        -0.8532    2.6232   -1.0498 H         1 <0>         0.1380
     50 H22        -0.3100    1.2450   -2.0657 H         1 <0>         0.1433
     51 H23        -1.7821   -0.5260   -2.5721 H         1 <0>         0.1435
     52 H24        -4.0509   -1.4787   -2.4957 H         1 <0>         0.1440
     53 H25        -5.7334   -0.5329   -0.9669 H         1 <0>         0.1466
     54 H26        -5.1456    1.3616    0.4913 H         1 <0>         0.1473
     55 H27        -0.5121    1.2866    0.9457 H         1 <0>         0.4434
@<TRIPOS>BOND
     1    1    2 1
     2    1   29 1
     3    1   30 1
     4    1   31 1
     5    2    3 1
     6    2   32 1
     7    2   33 1
     8    3    4 1
     9    4    9 ar
    10    4    5 ar
    11    5    6 ar
    12    5   34 1
    13    6    7 ar
    14    6   19 1
    15    7    8 ar
    16    7   35 1
    17    8    9 ar
    18    8   36 1
    19    9   10 1
    20   10   11 1
    21   11   12 1
    22   11   37 1
    23   11   38 1
    24   12   17 ar
    25   12   13 ar
    26   13   14 ar
    27   13   39 1
    28   14   15 ar
    29   14   40 1
    30   15   16 ar
    31   15   18 1
    32   16   17 ar
    33   16   41 1
    34   17   42 1
    35   18   43 1
    36   18   44 1
    37   18   45 1
    38   19   20 1
    39   19   46 1
    40   19   47 1
    41   20   21 1
    42   20   48 1
    43   20   55 1
    44   21   22 1
    45   21   49 1
    46   21   50 1
    47   22   27 ar
    48   22   23 ar
    49   23   24 ar
    50   23   51 1
    51   24   25 ar
    52   24   52 1
    53   25   26 ar
    54   25   53 1
    55   26   27 ar
    56   26   54 1
    57   27   28 1
