@<TRIPOS>MOLECULE
ZINC37005280
   34    35     0     0     0
SMALL
USER_CHARGES

@<TRIPOS>ATOM
      1 C1          1.0877    0.3324   -0.9511 C.3       1 <0>        -0.1754
      2 C2          0.4731   -1.0115   -0.5548 C.3       1 <0>        -0.0788
      3 C3          1.1487   -1.5257    0.7180 C.3       1 <0>        -0.1558
      4 C4         -1.0249   -0.8320   -0.3001 C.3       1 <0>        -0.0728
      5 H1         -1.4456   -1.7678    0.0676 H         1 <0>         0.1241
      6 C5         -1.7099   -0.4438   -1.5851 C.2       1 <0>         0.5229
      7 O1         -1.2210    0.4049   -2.3006 O.2       1 <0>        -0.4825
      8 N1         -2.8657   -1.0397   -1.9393 N.am      1 <0>        -0.6594
      9 C6         -3.5624   -0.5993   -3.0723 C.ar      1 <0>         0.1731
     10 C7         -3.3961    0.7030   -3.5260 C.ar      1 <0>        -0.1090
     11 C8         -4.0845    1.1351   -4.6448 C.ar      1 <0>         0.1097
     12 C9         -4.9433    0.2634   -5.3137 C.ar      1 <0>         0.0903
     13 C10        -5.1076   -1.0346   -4.8595 C.ar      1 <0>        -0.0908
     14 C11        -4.4141   -1.4676   -3.7438 C.ar      1 <0>        -0.0603
     15 Cl1        -4.6136   -3.0965   -3.1774 Cl        1 <0>        -0.0490
     16 N2         -5.6355    0.7184   -6.4471 N.am      1 <0>        -0.6578
     17 C12        -5.2299    1.8582   -7.0479 C.2       1 <0>         0.4919
     18 O2         -5.8314    2.2866   -8.0102 O.2       1 <0>        -0.5029
     19 C13        -4.0270    2.5959   -6.5174 C.3       1 <0>         0.0494
     20 O3         -3.9322    2.4066   -5.1033 O.3       1 <0>        -0.2931
     21 Br1        -1.2971    0.5803    1.0402 Br        1 <0>        -0.0916
     22 H2          2.1548    0.2046   -1.1325 H         1 <0>         0.0578
     23 H3          0.6063    0.6988   -1.8578 H         1 <0>         0.0921
     24 H4          0.9397    1.0514   -0.1453 H         1 <0>         0.0658
     25 H5          0.6211   -1.7304   -1.3606 H         1 <0>         0.0893
     26 H6          0.7109   -2.4831    1.0004 H         1 <0>         0.0583
     27 H7          2.2159   -1.6536    0.5366 H         1 <0>         0.0678
     28 H8          1.0008   -0.8068    1.5238 H         1 <0>         0.0681
     29 H9         -3.2152   -1.7734   -1.4097 H         1 <0>         0.4178
     30 H10        -2.7310    1.3766   -3.0060 H         1 <0>         0.1734
     31 H11        -5.7726   -1.7090   -5.3784 H         1 <0>         0.1513
     32 H12        -6.3932    0.2217   -6.7936 H         1 <0>         0.4190
     33 H13        -3.1259    2.2123   -6.9960 H         1 <0>         0.1055
     34 H14        -4.1283    3.6591   -6.7352 H         1 <0>         0.1517
@<TRIPOS>BOND
     1    1    2 1
     2    1   22 1
     3    1   23 1
     4    1   24 1
     5    2    3 1
     6    2    4 1
     7    2   25 1
     8    3   26 1
     9    3   27 1
    10    3   28 1
    11    4    5 1
    12    4    6 1
    13    4   21 1
    14    6    7 2
    15    6    8 am
    16    8    9 1
    17    8   29 1
    18    9   14 ar
    19    9   10 ar
    20   10   11 ar
    21   10   30 1
    22   11   20 1
    23   11   12 ar
    24   12   13 ar
    25   12   16 1
    26   13   14 ar
    27   13   31 1
    28   14   15 1
    29   16   17 am
    30   16   32 1
    31   17   18 2
    32   17   19 1
    33   19   20 1
    34   19   33 1
    35   19   34 1
