@<TRIPOS>MOLECULE
ZINC35341732
   33    35     0     0     0
SMALL
USER_CHARGES

@<TRIPOS>ATOM
      1 C1          0.5824    0.3616   -1.2104 C.ar      1 <0>        -0.0453
      2 C2          1.7680    1.0707   -1.2203 C.ar      1 <0>        -0.1337
      3 C3          2.3785    1.4180   -0.0279 C.ar      1 <0>         0.0999
      4 C4          1.8016    1.0551    1.1805 C.ar      1 <0>         0.0610
      5 C5          0.6149    0.3459    1.1948 C.ar      1 <0>        -0.0721
      6 C6          0.0015   -0.0031   -0.0022 C.ar      1 <0>        -0.1240
      7 S1         -1.5110   -0.9070    0.0122 S.3       1 <0>         0.0011
      8 C7         -1.0052   -2.5869   -0.1509 C.ar      1 <0>        -0.2009
      9 C8          0.3439   -2.9101   -0.1399 C.ar      1 <0>        -0.0370
     10 C9          0.7412   -4.2272   -0.2672 C.ar      1 <0>        -0.1633
     11 C10        -0.2082   -5.2316   -0.4069 C.ar      1 <0>         0.2117
     12 C11        -1.5596   -4.9140   -0.4182 C.ar      1 <0>        -0.2179
     13 C12        -1.9612   -3.5942   -0.2854 C.ar      1 <0>         0.2748
     14 N1         -3.3231   -3.2718   -0.2911 N.pl3     1 <0>        -0.8657
     15 N2          0.2003   -6.5650   -0.5359 N.am      1 <0>        -0.6636
     16 C13         1.4379   -6.9381   -0.1621 C.2       1 <0>         0.5228
     17 O1          1.7809   -8.0941   -0.2935 O.2       1 <0>        -0.5243
     18 C14         2.4015   -5.9375    0.4168 C.3       1 <0>        -0.1389
     19 C15         2.2066   -4.5782   -0.2554 C.3       1 <0>        -0.0701
     20 F1          2.3997    1.3945    2.3433 F         1 <0>        -0.1217
     21 F2          3.5381    2.1110   -0.0405 F         1 <0>        -0.1200
     22 H1          0.1048    0.0948   -2.1416 H         1 <0>         0.1519
     23 H2          2.2191    1.3539   -2.1598 H         1 <0>         0.1556
     24 H3          0.1655    0.0629    2.1352 H         1 <0>         0.1576
     25 H4          1.0843   -2.1313   -0.0321 H         1 <0>         0.1269
     26 H5         -2.2975   -5.6951   -0.5269 H         1 <0>         0.1338
     27 H6         -3.6031   -2.3474   -0.2015 H         1 <0>         0.4025
     28 H7         -3.9871   -3.9728   -0.3846 H         1 <0>         0.4039
     29 H8         -0.4132   -7.2240   -0.8968 H         1 <0>         0.4117
     30 H9          2.2230   -5.8407    1.4878 H         1 <0>         0.1049
     31 H10         3.4227   -6.2804    0.2508 H         1 <0>         0.1100
     32 H11         2.5776   -4.6229   -1.2793 H         1 <0>         0.0805
     33 H12         2.7578   -3.8174    0.2974 H         1 <0>         0.0879
@<TRIPOS>BOND
     1    1    6 ar
     2    1    2 ar
     3    1   22 1
     4    2    3 ar
     5    2   23 1
     6    3    4 ar
     7    3   21 1
     8    4    5 ar
     9    4   20 1
    10    5    6 ar
    11    5   24 1
    12    6    7 1
    13    7    8 1
    14    8   13 ar
    15    8    9 ar
    16    9   10 ar
    17    9   25 1
    18   10   19 1
    19   10   11 ar
    20   11   12 ar
    21   11   15 1
    22   12   13 ar
    23   12   26 1
    24   13   14 1
    25   14   27 1
    26   14   28 1
    27   15   16 am
    28   15   29 1
    29   16   17 2
    30   16   18 1
    31   18   19 1
    32   18   30 1
    33   18   31 1
    34   19   32 1
    35   19   33 1
