@<TRIPOS>MOLECULE
ZINC28165844
   39    42     0     0     0
SMALL
USER_CHARGES
(1R)-1-[3-(BLAHylamino)phenyl]ethanol
@<TRIPOS>ATOM
      1 C1          6.2731    7.1200   -0.3299 C.3       1 <0>        -0.1426
      2 C2          5.3761    6.6642    0.8227 C.3       1 <0>         0.1552
      3 H1          5.9471    6.1278    1.5949 H         1 <0>         0.0582
      4 C3          4.2711    5.7922    0.2847 C.ar      1 <0>        -0.1042
      5 C4          3.1614    6.3690   -0.3060 C.ar      1 <0>        -0.1151
      6 C5          2.1453    5.5726   -0.8009 C.ar      1 <0>        -0.0997
      7 C6          2.2378    4.1974   -0.7115 C.ar      1 <0>        -0.1121
      8 C7          3.3484    3.6150   -0.1146 C.ar      1 <0>         0.1560
      9 C8          4.3677    4.4182    0.3816 C.ar      1 <0>        -0.1419
     10 N1          3.4432    2.2237   -0.0186 N.pl3     1 <0>        -0.6552
     11 C9          2.2999    1.4622    0.1512 C.ar      1 <0>         0.4816
     12 C10         2.3689    0.0420    0.1326 C.ar      1 <0>        -0.2255
     13 C11         3.5519   -0.8140   -0.0538 C.2       1 <0>        -0.1171
     14 C12         3.3506   -2.1412   -0.0276 C.2       1 <0>        -0.1729
     15 S1          1.6036   -2.3396    0.2396 S.3       1 <0>         0.1524
     16 C13         1.1466   -0.6292    0.3165 C.ar      1 <0>         0.1447
     17 N2          0.0175    0.0307    0.4916 N.ar      1 <0>        -0.5150
     18 C14         0.0139    1.3498    0.4985 C.ar      1 <0>         0.3596
     19 N3          1.1250    2.0447    0.3329 N.ar      1 <0>        -0.5775
     20 C15         4.6277   -2.9137   -0.2238 C.3       1 <0>        -0.0416
     21 C16         5.7479   -1.8868    0.0523 C.3       1 <0>        -0.1105
     22 C17         5.0440   -0.5578   -0.2846 C.3       1 <0>        -0.0637
     23 O1          4.8101    7.8075    1.4666 O.3       1 <0>        -0.5936
     24 H2          7.0797    7.7565    0.0628 H         1 <0>         0.0663
     25 H3          5.6756    7.6912   -1.0557 H         1 <0>         0.0658
     26 H4          6.7088    6.2399   -0.8255 H         1 <0>         0.0718
     27 H5          3.0883    7.4440   -0.3805 H         1 <0>         0.1274
     28 H6          1.2802    6.0262   -1.2616 H         1 <0>         0.1264
     29 H7          1.4456    3.5757   -1.1020 H         1 <0>         0.1346
     30 H8          5.2347    3.9684    0.8424 H         1 <0>         0.1220
     31 H9          4.4264    1.7340   -0.0780 H         1 <0>         0.4419
     32 H10        -0.9200    1.8739    0.6386 H         1 <0>         0.2099
     33 H11         4.6595   -3.7553    0.4838 H         1 <0>         0.0850
     34 H12         4.6690   -3.2986   -1.2534 H         1 <0>         0.0906
     35 H13         6.0590   -1.9577    1.1050 H         1 <0>         0.0816
     36 H14         6.6084   -2.0987   -0.5993 H         1 <0>         0.0897
     37 H15         5.2088   -0.2710   -1.3337 H         1 <0>         0.0873
     38 H16         5.3829    0.2545    0.3752 H         1 <0>         0.0709
     39 H17         4.1333    7.6771    2.3239 H         1 <0>         0.4090
@<TRIPOS>BOND
     1    1    2 1
     2    1   24 1
     3    1   25 1
     4    1   26 1
     5    2    3 1
     6    2    4 1
     7    2   23 1
     8    4    9 ar
     9    4    5 ar
    10    5    6 ar
    11    5   27 1
    12    6    7 ar
    13    6   28 1
    14    7    8 ar
    15    7   29 1
    16    8    9 ar
    17    8   10 1
    18    9   30 1
    19   10   11 1
    20   10   31 1
    21   11   19 ar
    22   11   12 ar
    23   12   16 ar
    24   12   13 1
    25   13   22 1
    26   13   14 2
    27   14   15 1
    28   14   20 1
    29   15   16 1
    30   16   17 ar
    31   17   18 ar
    32   18   19 ar
    33   18   32 1
    34   20   21 1
    35   20   33 1
    36   20   34 1
    37   21   22 1
    38   21   35 1
    39   21   36 1
    40   22   37 1
    41   22   38 1
    42   23   39 1
