@<TRIPOS>MOLECULE
ZINC63572710
   53    57     0     0     0
SMALL
USER_CHARGES

@<TRIPOS>ATOM
      1 C1         -1.5905    1.0161    1.7824 C.3       1 <0>        -0.1233
      2 C2         -1.2959   -0.4340    1.4969 C.ar      1 <0>        -0.0638
      3 C3         -1.6291   -1.4028    2.4250 C.ar      1 <0>        -0.1073
      4 C4         -1.3589   -2.7329    2.1631 C.ar      1 <0>        -0.0814
      5 C5         -0.7559   -3.0944    0.9729 C.ar      1 <0>        -0.0873
      6 C6         -0.4235   -2.1257    0.0444 C.ar      1 <0>        -0.0956
      7 C7         -0.6976   -0.7960    0.3044 C.ar      1 <0>        -0.1098
      8 C8         -0.4604   -4.5444    0.6878 C.3       1 <0>         0.2248
      9 H1         -0.3853   -4.7008   -0.3883 H         1 <0>         0.1096
     10 C9         -1.5757   -5.4239    1.2633 C.3       1 <0>         0.0686
     11 H2         -1.7942   -5.1406    2.2929 H         1 <0>         0.1814
     12 C10        -1.0745   -6.8609    1.1965 C.2       1 <0>         0.0737
     13 C11        -1.9799   -7.5420    0.5042 C.ar      1 <0>        -0.1548
     14 C12        -2.0840   -8.9713    0.1691 C.ar      1 <0>         0.0070
     15 C13        -3.1584   -9.3344   -0.5819 C.ar      1 <0>        -0.0807
     16 C14        -4.1275   -8.4280   -1.0270 C.ar      1 <0>         0.0516
     17 C15        -4.1122   -7.0976   -0.7620 C.ar      1 <0>        -0.1816
     18 C16        -3.0334   -6.5969    0.0238 C.ar      1 <0>         0.3335
     19 N1         -2.7890   -5.3689    0.4458 N.pl3     1 <0>        -0.5690
     20 Cl1        -3.3365  -11.0072   -1.0105 Cl        1 <0>        -0.0173
     21 C17         0.2534   -7.2838    1.7755 C.3       1 <0>        -0.1042
     22 C18         1.3075   -6.3047    1.2272 C.3       1 <0>         0.1032
     23 N2          0.8018   -4.9323    1.3366 N.am      1 <0>        -0.6276
     24 C19         1.4994   -4.0180    2.0396 C.2       1 <0>         0.7066
     25 O1          1.0253   -2.9172    2.2439 O.2       1 <0>        -0.5169
     26 N3          2.7224   -4.3240    2.5159 N.am      1 <0>        -0.6748
     27 C20         3.3970   -3.4201    3.3454 C.ar      1 <0>         0.1634
     28 C21         3.1403   -2.0593    3.2454 C.ar      1 <0>        -0.1176
     29 C22         3.8073   -1.1698    4.0650 C.ar      1 <0>        -0.0926
     30 C23         4.7303   -1.6329    4.9848 C.ar      1 <0>        -0.1179
     31 C24         4.9891   -2.9872    5.0873 C.ar      1 <0>        -0.0882
     32 C25         4.3206   -3.8833    4.2744 C.ar      1 <0>        -0.0669
     33 Cl2         4.6401   -5.5843    4.4086 Cl        1 <0>        -0.0671
     34 H3         -2.5876    1.2629    1.4178 H         1 <0>         0.0739
     35 H4         -1.5428    1.1917    2.8571 H         1 <0>         0.0698
     36 H5         -0.8541    1.6424    1.2788 H         1 <0>         0.0702
     37 H6         -2.1002   -1.1204    3.3549 H         1 <0>         0.1221
     38 H7         -1.6186   -3.4897    2.8885 H         1 <0>         0.1068
     39 H8          0.0479   -2.4081   -0.8854 H         1 <0>         0.1171
     40 H9         -0.4413   -0.0396   -0.4226 H         1 <0>         0.1244
     41 H10        -1.3494   -9.6904    0.5002 H         1 <0>         0.1801
     42 H11        -4.9422   -8.8136   -1.6219 H         1 <0>         0.1685
     43 H12        -4.8875   -6.4431   -1.1321 H         1 <0>         0.1795
     44 H13         0.2211   -7.2260    2.8635 H         1 <0>         0.1305
     45 H14         0.4901   -8.3005    1.4620 H         1 <0>         0.1289
     46 H15         2.2274   -6.4003    1.8039 H         1 <0>         0.1103
     47 H16         1.5082   -6.5350    0.1809 H         1 <0>         0.0980
     48 H17         3.1354   -5.1706    2.2841 H         1 <0>         0.4069
     49 H18         2.4199   -1.6965    2.5271 H         1 <0>         0.1622
     50 H19         3.6081   -0.1112    3.9871 H         1 <0>         0.1342
     51 H20         5.2503   -0.9351    5.6244 H         1 <0>         0.1367
     52 H21         5.7110   -3.3457    5.8062 H         1 <0>         0.1405
     53 H22        -3.3068   -4.5718    0.2521 H         1 <0>         0.4615
@<TRIPOS>BOND
     1    1    2 1
     2    1   34 1
     3    1   35 1
     4    1   36 1
     5    2    7 ar
     6    2    3 ar
     7    3    4 ar
     8    3   37 1
     9    4    5 ar
    10    4   38 1
    11    5    6 ar
    12    5    8 1
    13    6    7 ar
    14    6   39 1
    15    7   40 1
    16    8    9 1
    17    8   23 1
    18    8   10 1
    19   10   11 1
    20   10   19 1
    21   10   12 1
    22   12   13 2
    23   12   21 1
    24   13   18 ar
    25   13   14 ar
    26   14   15 ar
    27   14   41 1
    28   15   16 ar
    29   15   20 1
    30   16   17 ar
    31   16   42 1
    32   17   18 ar
    33   17   43 1
    34   18   19 2
    35   19   53 1
    36   21   22 1
    37   21   44 1
    38   21   45 1
    39   22   23 1
    40   22   46 1
    41   22   47 1
    42   23   24 am
    43   24   25 2
    44   24   26 am
    45   26   27 1
    46   26   48 1
    47   27   32 ar
    48   27   28 ar
    49   28   29 ar
    50   28   49 1
    51   29   30 ar
    52   29   50 1
    53   30   31 ar
    54   30   51 1
    55   31   32 ar
    56   31   52 1
    57   32   33 1
