@<TRIPOS>MOLECULE
ZINC41715517
   22    22     0     0     0
SMALL
USER_CHARGES

@<TRIPOS>ATOM
      1 C1         -1.0736    1.6051    0.6619 C.3       1 <0>        -0.1423
      2 C2         -0.3933    0.2706    0.3501 C.3       1 <0>        -0.0768
      3 H1         -1.1453   -0.4591    0.0498 H         1 <0>         0.1267
      4 C3          0.3261   -0.2255    1.5778 C.2       1 <0>         0.5211
      5 O1          1.0033    0.5376    2.2337 O.2       1 <0>        -0.4883
      6 N1          0.2169   -1.5171    1.9471 N.am      1 <0>        -0.6609
      7 C4          0.9752   -2.0057    3.0182 C.ar      1 <0>         0.1476
      8 C5          2.1656   -1.3837    3.3681 C.ar      1 <0>        -0.1437
      9 C6          2.9124   -1.8684    4.4271 C.ar      1 <0>         0.1178
     10 C7          2.4730   -2.9730    5.1376 C.ar      1 <0>        -0.1414
     11 C8          1.2879   -3.5948    4.7909 C.ar      1 <0>        -0.0995
     12 C9          0.5342   -3.1113    3.7369 C.ar      1 <0>         0.0590
     13 F1         -0.6266   -3.7161    3.4023 F         1 <0>        -0.1319
     14 F2          4.0714   -1.2639    4.7681 F         1 <0>        -0.1277
     15 Br1         0.8986    0.5192   -1.1108 Br        1 <0>        -0.0966
     16 H2         -0.3216    2.3348    0.9621 H         1 <0>         0.0841
     17 H3         -1.5939    1.9639   -0.2261 H         1 <0>         0.0841
     18 H4         -1.7899    1.4673    1.4719 H         1 <0>         0.0774
     19 H5         -0.3870   -2.1083    1.4709 H         1 <0>         0.4202
     20 H6          2.5088   -0.5225    2.8141 H         1 <0>         0.1677
     21 H7          3.0576   -3.3497    5.9639 H         1 <0>         0.1501
     22 H8          0.9482   -4.4564    5.3464 H         1 <0>         0.1534
@<TRIPOS>BOND
     1    1    2 1
     2    1   16 1
     3    1   17 1
     4    1   18 1
     5    2    3 1
     6    2    4 1
     7    2   15 1
     8    4    5 2
     9    4    6 am
    10    6    7 1
    11    6   19 1
    12    7   12 ar
    13    7    8 ar
    14    8    9 ar
    15    8   20 1
    16    9   10 ar
    17    9   14 1
    18   10   11 ar
    19   10   21 1
    20   11   12 ar
    21   11   22 1
    22   12   13 1
