@<TRIPOS>MOLECULE
ZINC11790285
   58    61     0     0     0
SMALL
USER_CHARGES
(1S)-1-(2-thienyl)-N-[(5,6,7-trimethoxy-2-phenyl-3-quinolyl)methyl]ethanamine
@<TRIPOS>ATOM
      1 C1         -5.9690   -0.5299   -1.8986 C.3       1 <0>        -0.1805
      2 C2         -6.3754    0.2831   -0.6678 C.3       1 <0>         0.1390
      3 H1         -7.2056    0.9410   -0.9248 H         1 <0>         0.1579
      4 C3         -6.7989   -0.6527    0.4349 C.2       1 <0>        -0.2607
      5 C4         -8.0492   -1.0005    0.8262 C.2       1 <0>        -0.0753
      6 C5         -8.2007   -1.8903    1.8731 C.2       1 <0>        -0.1723
      7 C6         -7.0948   -2.3806    2.4844 C.2       1 <0>        -0.1128
      8 S1         -5.7840   -1.5849    1.5700 S.3       1 <0>         0.0525
      9 C7         -5.1605    2.3583   -0.9506 C.3       1 <0>         0.0504
     10 C8         -4.0645    3.2136   -0.3690 C.ar      1 <0>        -0.1922
     11 C9         -3.2169    2.6961    0.5668 C.ar      1 <0>        -0.0411
     12 C10        -2.2071    3.5269    1.0856 C.ar      1 <0>        -0.1320
     13 C11        -2.1055    4.8636    0.6218 C.ar      1 <0>         0.1918
     14 C12        -1.0983    5.6964    1.1377 C.ar      1 <0>        -0.1991
     15 C13        -0.2241    5.2116    2.0827 C.ar      1 <0>         0.1675
     16 C14        -0.3258    3.8932    2.5449 C.ar      1 <0>         0.0815
     17 C15        -1.3010    3.0518    2.0532 C.ar      1 <0>         0.1255
     18 O1         -1.3909    1.7727    2.5039 O.3       1 <0>        -0.3232
     19 C16        -2.2124    1.5452    3.6508 C.3       1 <0>         0.0299
     20 O2          0.5479    3.4380    3.4839 O.3       1 <0>        -0.3169
     21 C17         1.6970    2.7315    3.0124 C.3       1 <0>         0.0366
     22 O3          0.7474    6.0229    2.5770 O.3       1 <0>        -0.2910
     23 C18         0.7977    7.3581    2.0701 C.3       1 <0>         0.0171
     24 N1         -2.9640    5.3172   -0.2964 N.ar      1 <0>        -0.4442
     25 C19        -3.9135    4.5434   -0.7879 C.ar      1 <0>         0.2377
     26 C20        -4.8417    5.0925   -1.8056 C.ar      1 <0>        -0.0715
     27 C21        -5.1545    4.3478   -2.9416 C.ar      1 <0>        -0.1138
     28 C22        -6.0227    4.8620   -3.8830 C.ar      1 <0>        -0.1161
     29 C23        -6.5741    6.1183   -3.7061 C.ar      1 <0>        -0.0956
     30 C24        -6.2632    6.8640   -2.5833 C.ar      1 <0>        -0.1133
     31 C25        -5.4004    6.3579   -1.6327 C.ar      1 <0>        -0.0715
     32 H2         -6.8160   -1.1280   -2.2349 H         1 <0>         0.1124
     33 H3         -5.6628    0.1470   -2.6962 H         1 <0>         0.0895
     34 H4         -5.1389   -1.1878   -1.6416 H         1 <0>         0.0853
     35 H5         -8.9140   -0.5907    0.3256 H         1 <0>         0.1457
     36 H6         -9.1857   -2.1875    2.2016 H         1 <0>         0.1519
     37 H7         -7.0246   -3.0727    3.3105 H         1 <0>         0.2005
     38 H8         -6.1128    2.8821   -0.8676 H         1 <0>         0.1507
     39 H9         -4.9465    2.1577   -2.0004 H         1 <0>         0.1516
     40 H10        -3.3190    1.6742    0.9011 H         1 <0>         0.1343
     41 H11        -1.0103    6.7160    0.7924 H         1 <0>         0.1584
     42 H12        -2.2576    0.4762    3.8591 H         1 <0>         0.1049
     43 H13        -3.2174    1.9205    3.4581 H         1 <0>         0.0446
     44 H14        -1.7889    2.0652    4.5101 H         1 <0>         0.0637
     45 H15         1.3789    1.8870    2.4010 H         1 <0>         0.0529
     46 H16         2.3149    3.4009    2.4139 H         1 <0>         0.0518
     47 H17         2.2739    2.3675    3.8626 H         1 <0>         0.1031
     48 H18         0.9584    7.3317    0.9924 H         1 <0>         0.0650
     49 H19        -0.1436    7.8639    2.2848 H         1 <0>         0.0655
     50 H20         1.6167    7.8969    2.5465 H         1 <0>         0.1137
     51 H21        -4.7211    3.3687   -3.0829 H         1 <0>         0.1231
     52 H22        -6.2687    4.2843   -4.7618 H         1 <0>         0.1323
     53 H23        -7.2502    6.5182   -4.4473 H         1 <0>         0.1318
     54 H24        -6.6970    7.8441   -2.4502 H         1 <0>         0.1334
     55 H25        -5.1586    6.9408   -0.7562 H         1 <0>         0.1311
     56 N2         -5.2271    1.0861   -0.2069 N.4       1 <0>        -0.5273
     57 H26        -4.3605    0.5577   -0.3615 H         1 <0>         0.4324
     58 H27        -5.3329    1.2846    0.7949 H         1 <0>         0.4333
@<TRIPOS>BOND
     1    1    2 1
     2    1   32 1
     3    1   33 1
     4    1   34 1
     5    2    3 1
     6    2    4 1
     7    2   56 1
     8    4    8 1
     9    4    5 2
    10    5    6 1
    11    5   35 1
    12    6    7 2
    13    6   36 1
    14    7    8 1
    15    7   37 1
    16    9   10 1
    17    9   38 1
    18    9   39 1
    19    9   56 1
    20   10   25 ar
    21   10   11 ar
    22   11   12 ar
    23   11   40 1
    24   12   17 ar
    25   12   13 ar
    26   13   14 ar
    27   13   24 ar
    28   14   15 ar
    29   14   41 1
    30   15   16 ar
    31   15   22 1
    32   16   17 ar
    33   16   20 1
    34   17   18 1
    35   18   19 1
    36   19   42 1
    37   19   43 1
    38   19   44 1
    39   20   21 1
    40   21   45 1
    41   21   46 1
    42   21   47 1
    43   22   23 1
    44   23   48 1
    45   23   49 1
    46   23   50 1
    47   24   25 ar
    48   25   26 1
    49   26   31 ar
    50   26   27 ar
    51   27   28 ar
    52   27   51 1
    53   28   29 ar
    54   28   52 1
    55   29   30 ar
    56   29   53 1
    57   30   31 ar
    58   30   54 1
    59   31   55 1
    60   56   57 1
    61   56   58 1
