@<TRIPOS>MOLECULE
ZINC20357217
   70    72     0     0     0
SMALL
USER_CHARGES
3-(2-chloro-5-methyl-phenyl)-1-[(4-dimethylaminophenyl)methyl]-1-(2,2,6,6-tetramethyl-4-piperidyl)thiourea
@<TRIPOS>ATOM
      1 C1          5.5972    0.4433   -2.5081 C.3       1 <0>        -0.1220
      2 C2          4.2701   -0.1173   -2.9505 C.ar      1 <0>        -0.0324
      3 C3          4.0173   -1.4714   -2.8281 C.ar      1 <0>        -0.1440
      4 C4          2.8011   -1.9901   -3.2327 C.ar      1 <0>        -0.0593
      5 C5          1.8320   -1.1550   -3.7562 C.ar      1 <0>        -0.0966
      6 C6          2.0853    0.2052   -3.8846 C.ar      1 <0>         0.2120
      7 C7          3.3080    0.7221   -3.4771 C.ar      1 <0>        -0.1754
      8 N1          1.1082    1.0533   -4.4182 N.pl3     1 <0>        -0.7119
      9 C8          1.3651    2.3680   -4.5666 C.2       1 <0>         0.5557
     10 S1          1.8084    2.9857   -6.1005 S.2       1 <0>        -0.5044
     11 N2          1.2729    3.1964   -3.5075 N.pl3     1 <0>        -0.5274
     12 C9          1.4656    4.6377   -3.6860 C.3       1 <0>         0.1404
     13 C10         2.9230    4.9759   -3.5049 C.ar      1 <0>        -0.1812
     14 C11         3.3738    5.4563   -2.2891 C.ar      1 <0>        -0.0653
     15 C12         4.7097    5.7619   -2.1180 C.ar      1 <0>        -0.2039
     16 C13         5.5988    5.5969   -3.1725 C.ar      1 <0>         0.2316
     17 C14         5.1416    5.1194   -4.3942 C.ar      1 <0>        -0.1949
     18 C15         3.8054    4.8104   -4.5567 C.ar      1 <0>        -0.0444
     19 N3          6.9495    5.9108   -3.0048 N.pl3     1 <0>        -0.6314
     20 C16         7.8856    5.7366   -4.1181 C.3       1 <0>         0.0867
     21 C17         7.4299    6.4142   -1.7156 C.3       1 <0>         0.0900
     22 C18         0.9795    2.6544   -2.1748 C.3       1 <0>         0.1100
     23 C19        -0.2337    3.3791   -1.5926 C.3       1 <0>        -0.1427
     24 C20        -0.5493    2.8492   -0.1960 C.3       1 <0>         0.0715
     25 N4          0.6133    2.8014    0.6659 N.4       1 <0>        -0.5140
     26 C21         1.8912    2.3642    0.1441 C.3       1 <0>         0.0542
     27 C22         2.1773    2.8979   -1.2573 C.3       1 <0>        -0.1586
     28 C23         3.0009    2.8946    1.0792 C.3       1 <0>        -0.1781
     29 C24         1.9940    0.8343    0.1406 C.3       1 <0>        -0.1784
     30 C25        -1.2127    1.4714   -0.3084 C.3       1 <0>        -0.1778
     31 C26        -1.5834    3.8039    0.4412 C.3       1 <0>        -0.1780
     32 Cl1         0.3027   -1.8056   -4.2580 Cl        1 <0>        -0.0577
     33 H1          6.2276   -0.3701   -2.1195 H         1 <0>         0.0749
     34 H2          5.4343    1.1906   -1.7176 H         1 <0>         0.0680
     35 H3          6.0983    0.9185   -3.3643 H         1 <0>         0.0778
     36 H4          4.7716   -2.1253   -2.4160 H         1 <0>         0.1356
     37 H5          2.6067   -3.0481   -3.1359 H         1 <0>         0.1407
     38 H6          3.5063    1.7795   -3.5715 H         1 <0>         0.1298
     39 H7          0.1305    0.6469   -4.7165 H         1 <0>         0.4534
     40 H8          1.1447    4.9280   -4.6973 H         1 <0>         0.1243
     41 H9          0.8674    5.1827   -2.9409 H         1 <0>         0.0917
     42 H10         2.6811    5.5888   -1.4711 H         1 <0>         0.1109
     43 H11         5.0619    6.1329   -1.1669 H         1 <0>         0.1203
     44 H12         5.8303    4.9896   -5.2159 H         1 <0>         0.1233
     45 H13         3.4493    4.4389   -5.5062 H         1 <0>         0.1535
     46 H14         8.8953    6.0333   -3.7980 H         1 <0>         0.0785
     47 H15         7.5699    6.3645   -4.9643 H         1 <0>         0.0594
     48 H16         7.8945    4.6812   -4.4279 H         1 <0>         0.0577
     49 H17         8.5118    6.6036   -1.7761 H         1 <0>         0.0785
     50 H18         7.2316    5.6668   -0.9332 H         1 <0>         0.0536
     51 H19         6.9070    7.3502   -1.4696 H         1 <0>         0.0564
     52 H20         0.7815    1.5789   -2.2937 H         1 <0>         0.1167
     53 H21        -0.0210    4.4564   -1.5278 H         1 <0>         0.0994
     54 H22        -1.1054    3.2160   -2.2434 H         1 <0>         0.1150
     55 H23         0.8200    3.8078    1.0588 H         1 <0>         0.4437
     56 H24         3.0607    2.3833   -1.6632 H         1 <0>         0.1166
     57 H25         2.3782    3.9776   -1.1954 H         1 <0>         0.1122
     58 H26         3.9830    2.5739    0.7015 H         1 <0>         0.1069
     59 H27         2.8491    2.4941    2.0924 H         1 <0>         0.0863
     60 H28         2.9607    3.9934    1.1095 H         1 <0>         0.0826
     61 H29         2.9733    0.5335   -0.2601 H         1 <0>         0.1046
     62 H30         1.1956    0.4146   -0.4890 H         1 <0>         0.0785
     63 H31         1.8869    0.4573    1.1684 H         1 <0>         0.0852
     64 H32        -1.4397    1.0905    0.6983 H         1 <0>         0.0855
     65 H33        -0.5296    0.7760   -0.8182 H         1 <0>         0.0796
     66 H34        -2.1447    1.5593   -0.8860 H         1 <0>         0.1051
     67 H35        -1.8344    3.4506    1.4522 H         1 <0>         0.0855
     68 H36        -2.4933    3.8240   -0.1766 H         1 <0>         0.1063
     69 H37        -1.1588    4.8168    0.5017 H         1 <0>         0.0824
     70 H38         0.4215    2.1134    1.5025 H         1 <0>         0.4474
@<TRIPOS>BOND
     1    1    2 1
     2    1   33 1
     3    1   34 1
     4    1   35 1
     5    2    7 ar
     6    2    3 ar
     7    3    4 ar
     8    3   36 1
     9    4    5 ar
    10    4   37 1
    11    5    6 ar
    12    5   32 1
    13    6    7 ar
    14    6    8 1
    15    7   38 1
    16    8    9 1
    17    8   39 1
    18    9   10 2
    19    9   11 1
    20   11   12 1
    21   11   22 1
    22   12   13 1
    23   12   40 1
    24   12   41 1
    25   13   18 ar
    26   13   14 ar
    27   14   15 ar
    28   14   42 1
    29   15   16 ar
    30   15   43 1
    31   16   17 ar
    32   16   19 1
    33   17   18 ar
    34   17   44 1
    35   18   45 1
    36   19   20 1
    37   19   21 1
    38   20   46 1
    39   20   47 1
    40   20   48 1
    41   21   49 1
    42   21   50 1
    43   21   51 1
    44   22   27 1
    45   22   23 1
    46   22   52 1
    47   23   24 1
    48   23   53 1
    49   23   54 1
    50   24   25 1
    51   24   30 1
    52   24   31 1
    53   25   26 1
    54   25   55 1
    55   25   70 1
    56   26   27 1
    57   26   28 1
    58   26   29 1
    59   27   56 1
    60   27   57 1
    61   28   58 1
    62   28   59 1
    63   28   60 1
    64   29   61 1
    65   29   62 1
    66   29   63 1
    67   30   64 1
    68   30   65 1
    69   30   66 1
    70   31   67 1
    71   31   68 1
    72   31   69 1
