@<TRIPOS>MOLECULE
ZINC35100410
   32    33     0     0     0
SMALL
USER_CHARGES

@<TRIPOS>ATOM
      1 C1         -0.0158    1.3103    0.0092 C.ar      1 <0>         0.1315
      2 C2          1.1645    2.0396    0.0019 C.ar      1 <0>        -0.0580
      3 C3          2.3788    1.3678   -0.0133 C.ar      1 <0>         0.0008
      4 C4          2.3663   -0.0210   -0.0207 C.ar      1 <0>        -0.0278
      5 C5          1.1414   -0.6865   -0.0126 C.ar      1 <0>         0.1021
      6 N1          0.0021   -0.0041    0.0020 N.ar      1 <0>        -0.4253
      7 C6          1.1103   -2.1664   -0.0202 C.2       1 <0>         0.5686
      8 O1          2.1498   -2.7960   -0.0336 O.2       1 <0>        -0.5020
      9 N2         -0.0707   -2.8156   -0.0125 N.am      1 <0>        -0.7002
     10 C7         -0.1015   -4.2803   -0.0200 C.3       1 <0>         0.1428
     11 C8         -0.0003   -4.7851   -1.4608 C.3       1 <0>        -0.1294
     12 C9         -1.1788   -4.2460   -2.2741 C.3       1 <0>        -0.1130
     13 C10        -2.4906   -4.7317   -1.6545 C.3       1 <0>         0.1039
     14 C11        -2.5919   -4.2270   -0.2137 C.3       1 <0>        -0.1553
     15 C12        -1.4134   -4.7661    0.5995 C.3       1 <0>        -0.1256
     16 O2         -3.5914   -4.2282   -2.4141 O.3       1 <0>        -0.5675
     17 Cl1         3.8543   -0.9150   -0.0403 Cl        1 <0>         0.0234
     18 Cl2         3.8781    2.2428   -0.0235 Cl        1 <0>         0.0045
     19 Cl3         1.1228    3.7751    0.0111 Cl        1 <0>        -0.0068
     20 H1         -0.9625    1.8298    0.0256 H         1 <0>         0.1909
     21 H2         -0.9004   -2.3132   -0.0018 H         1 <0>         0.4104
     22 H3          0.7381   -4.6644    0.5593 H         1 <0>         0.0972
     23 H4          0.9344   -4.4390   -1.9022 H         1 <0>         0.0775
     24 H5         -0.0232   -5.8748   -1.4665 H         1 <0>         0.0783
     25 H6         -1.1559   -3.1562   -2.2684 H         1 <0>         0.0697
     26 H7         -1.1066   -4.6056   -3.3005 H         1 <0>         0.0712
     27 H8         -2.5135   -5.8215   -1.6602 H         1 <0>         0.0570
     28 H9         -2.5690   -3.1372   -0.2081 H         1 <0>         0.0709
     29 H10        -3.5265   -4.5730    0.2277 H         1 <0>         0.0714
     30 H11        -1.4363   -5.8558    0.5939 H         1 <0>         0.0845
     31 H12        -1.4855   -4.4065    1.6260 H         1 <0>         0.0758
     32 H13        -4.4571   -4.4972   -2.0777 H         1 <0>         0.3785
@<TRIPOS>BOND
     1    1    6 ar
     2    1    2 ar
     3    1   20 1
     4    2    3 ar
     5    2   19 1
     6    3    4 ar
     7    3   18 1
     8    4    5 ar
     9    4   17 1
    10    5    6 ar
    11    5    7 1
    12    7    8 2
    13    7    9 am
    14    9   10 1
    15    9   21 1
    16   10   15 1
    17   10   11 1
    18   10   22 1
    19   11   12 1
    20   11   23 1
    21   11   24 1
    22   12   13 1
    23   12   25 1
    24   12   26 1
    25   13   14 1
    26   13   16 1
    27   13   27 1
    28   14   15 1
    29   14   28 1
    30   14   29 1
    31   15   30 1
    32   15   31 1
    33   16   32 1
