@<TRIPOS>MOLECULE
ZINC49523460
   56    58     0     0     0
SMALL
USER_CHARGES

@<TRIPOS>ATOM
      1 C1         -0.8279    0.6365    0.7075 C.3       1 <0>        -0.1350
      2 C2         -0.6528   -0.8599    0.6725 C.ar      1 <0>        -0.0124
      3 C3         -0.6648   -1.5292   -0.5369 C.ar      1 <0>        -0.1279
      4 C4         -0.5041   -2.9016   -0.5692 C.ar      1 <0>        -0.0100
      5 C5         -0.3314   -3.6059    0.6080 C.ar      1 <0>        -0.6790
      6 C6         -0.3193   -2.9379    1.8177 C.ar      1 <0>        -0.0103
      7 C7         -0.4743   -1.5632    1.8502 C.ar      1 <0>        -0.0625
      8 Cl1        -0.4526   -0.7226    3.3689 Cl        1 <0>        -0.0484
      9 S1         -0.1273   -5.3555    0.5659 S.o2      1 <0>         2.6963
     10 O1         -0.5293   -5.8421    1.8390 O.2       1 <0>        -0.9454
     11 O2         -0.7220   -5.8048   -0.6439 O.2       1 <0>        -0.9449
     12 N1          1.4960   -5.6561    0.4354 N.pl3     1 <0>        -1.1192
     13 C8          2.4006   -5.2790    1.5242 C.3       1 <0>         0.1177
     14 C9          3.7465   -5.9819    1.3357 C.3       1 <0>        -0.1080
     15 C10         4.4214   -5.4629    0.0627 C.3       1 <0>        -0.1466
     16 C11         5.8005   -6.1107   -0.0773 C.3       1 <0>        -0.0075
     17 N2          6.6251   -5.7715    1.0886 N.4       1 <0>        -0.3832
     18 C12         6.0209   -6.3280    2.3050 C.3       1 <0>        -0.0089
     19 C13         4.6502   -5.6885    2.5367 C.3       1 <0>        -0.1418
     20 C14         7.9723   -6.3303    0.9131 C.3       1 <0>         0.0425
     21 C15         8.8607   -5.8622    2.0367 C.ar      1 <0>        -0.1422
     22 C16         9.1605   -6.7139    3.0817 C.ar      1 <0>        -0.0726
     23 C17         9.9760   -6.2854    4.1130 C.ar      1 <0>        -0.1158
     24 C18        10.4940   -5.0028    4.1024 C.ar      1 <0>        -0.0654
     25 C19        10.1982   -4.1457    3.0612 C.ar      1 <0>        -0.1267
     26 C20         9.3839   -4.5750    2.0198 C.ar      1 <0>        -0.0682
     27 S2          9.0095   -3.4871    0.6853 S.3       1 <0>        -0.1414
     28 C21         9.8987   -1.9614    1.1003 C.3       1 <0>        -0.1341
     29 H1          0.1471    1.1183    0.6341 H         1 <0>         0.0872
     30 H2         -1.4516    0.9490   -0.1300 H         1 <0>         0.0823
     31 H3         -1.3059    0.9246    1.6438 H         1 <0>         0.0828
     32 H4         -0.8000   -0.9797   -1.4568 H         1 <0>         0.1459
     33 H5         -0.5139   -3.4242   -1.5143 H         1 <0>         0.1483
     34 H6         -0.1846   -3.4881    2.7372 H         1 <0>         0.1502
     35 H7          1.8478   -6.0818   -0.3621 H         1 <0>         0.4192
     36 H8          2.5501   -4.1994    1.5150 H         1 <0>         0.0738
     37 H9          1.9654   -5.5774    2.4780 H         1 <0>         0.0941
     38 H10         3.5877   -7.0571    1.2530 H         1 <0>         0.1036
     39 H11         3.8100   -5.7174   -0.8031 H         1 <0>         0.1148
     40 H12         4.5324   -4.3803    0.1251 H         1 <0>         0.0935
     41 H13         5.6884   -7.1931   -0.1398 H         1 <0>         0.1323
     42 H14         6.2837   -5.7435   -0.9827 H         1 <0>         0.1332
     43 H15         5.9040   -7.4058    2.1917 H         1 <0>         0.1318
     44 H16         6.6667   -6.1213    3.1584 H         1 <0>         0.1313
     45 H17         4.7659   -4.6107    2.6504 H         1 <0>         0.0919
     46 H18         4.2024   -6.1044    3.4393 H         1 <0>         0.1192
     47 H19         7.9181   -7.4189    0.9222 H         1 <0>         0.1405
     48 H20         8.3835   -5.9949   -0.0390 H         1 <0>         0.1390
     49 H21         8.7573   -7.7157    3.0937 H         1 <0>         0.1390
     50 H22        10.2088   -6.9536    4.9289 H         1 <0>         0.1405
     51 H23        11.1302   -4.6714    4.9097 H         1 <0>         0.1399
     52 H24        10.6027   -3.1443    3.0538 H         1 <0>         0.1356
     53 H25        10.9659   -2.1710    1.1723 H         1 <0>         0.0954
     54 H26         9.7262   -1.2173    0.3226 H         1 <0>         0.1206
     55 H27         9.5383   -1.5791    2.0553 H         1 <0>         0.0930
     56 H28         6.6880   -4.7681    1.1743 H         1 <0>         0.4221
@<TRIPOS>BOND
     1    1    2 1
     2    1   29 1
     3    1   30 1
     4    1   31 1
     5    2    7 ar
     6    2    3 ar
     7    3    4 ar
     8    3   32 1
     9    4    5 ar
    10    4   33 1
    11    5    6 ar
    12    5    9 1
    13    6    7 ar
    14    6   34 1
    15    7    8 1
    16    9   10 2
    17    9   11 2
    18    9   12 1
    19   12   13 1
    20   12   35 1
    21   13   14 1
    22   13   36 1
    23   13   37 1
    24   14   19 1
    25   14   15 1
    26   14   38 1
    27   15   16 1
    28   15   39 1
    29   15   40 1
    30   16   17 1
    31   16   41 1
    32   16   42 1
    33   17   18 1
    34   17   20 1
    35   17   56 1
    36   18   19 1
    37   18   43 1
    38   18   44 1
    39   19   45 1
    40   19   46 1
    41   20   21 1
    42   20   47 1
    43   20   48 1
    44   21   26 ar
    45   21   22 ar
    46   22   23 ar
    47   22   49 1
    48   23   24 ar
    49   23   50 1
    50   24   25 ar
    51   24   51 1
    52   25   26 ar
    53   25   52 1
    54   26   27 1
    55   27   28 1
    56   28   53 1
    57   28   54 1
    58   28   55 1
