@<TRIPOS>MOLECULE
ZINC14244315
   71    73     0     0     0
SMALL
USER_CHARGES
N-[[4-(dimethylaminomethyl)phenyl]methyl]-1-(2,3,5,6-tetramethylphenyl)sulfonyl-piperidine-4-carboxamide
@<TRIPOS>ATOM
      1 C1         -6.3855   -2.8487   10.2658 C.3       1 <0>        -0.1171
      2 C2         -5.7167   -1.7177   11.0037 C.ar      1 <0>        -0.1134
      3 C3         -6.4752   -0.8343   11.7488 C.ar      1 <0>        -0.0558
      4 C4         -5.8617    0.2029   12.4260 C.ar      1 <0>        -0.1113
      5 C5         -4.4896    0.3570   12.3577 C.ar      1 <0>         0.0242
      6 C6         -3.7311   -0.5266   11.6130 C.ar      1 <0>        -0.6780
      7 C7         -4.3451   -1.5610   10.9319 C.ar      1 <0>         0.0161
      8 C8         -3.5187   -2.5206   10.1150 C.3       1 <0>        -0.1448
      9 S1         -1.9822   -0.3302   11.5261 S.o2      1 <0>         2.6891
     10 O1         -1.4677   -1.5228   10.9498 O.2       1 <0>        -0.9488
     11 O2         -1.5630    0.1435   12.7985 O.2       1 <0>        -0.9490
     12 N1         -1.6793    0.8869   10.4447 N.pl3     1 <0>        -0.9969
     13 C9         -1.4965    2.2698   10.9059 C.3       1 <0>         0.1121
     14 C10        -2.4624    3.1775   10.1378 C.3       1 <0>        -0.1186
     15 C11        -2.2520    2.9834    8.6344 C.3       1 <0>        -0.1025
     16 C12        -2.5527    1.5305    8.2590 C.3       1 <0>        -0.1269
     17 C13        -1.5879    0.6042    9.0058 C.3       1 <0>         0.1221
     18 C14        -3.1769    3.8998    7.8756 C.2       1 <0>         0.5201
     19 O3         -3.9300    4.6355    8.4777 O.2       1 <0>        -0.5261
     20 N2         -3.1672    3.9017    6.5279 N.am      1 <0>        -0.7320
     21 C15        -4.0664    4.7926    5.7902 C.3       1 <0>         0.1508
     22 C16        -3.8594    4.6016    4.3097 C.ar      1 <0>        -0.0694
     23 C17        -4.6041    3.6606    3.6235 C.ar      1 <0>        -0.0965
     24 C18        -4.4149    3.4861    2.2653 C.ar      1 <0>        -0.0944
     25 C19        -3.4814    4.2528    1.5933 C.ar      1 <0>        -0.1571
     26 C20        -2.7330    5.1901    2.2805 C.ar      1 <0>        -0.0928
     27 C21        -2.9253    5.3677    3.6379 C.ar      1 <0>        -0.0955
     28 C22        -3.2752    4.0625    0.1126 C.3       1 <0>         0.0470
     29 C23        -3.8451    4.9742   -2.0569 C.3       1 <0>        -0.0431
     30 C24        -5.5814    4.5756   -0.4171 C.3       1 <0>        -0.0478
     31 C25        -3.8208    1.4881   13.0956 C.3       1 <0>        -0.1968
     32 C26        -6.6886    1.1659   13.2383 C.3       1 <0>        -0.1194
     33 H1         -6.6554   -2.5187    9.2626 H         1 <0>         0.0706
     34 H2         -5.7004   -3.6938   10.1982 H         1 <0>         0.0738
     35 H3         -7.2843   -3.1517   10.8028 H         1 <0>         0.0693
     36 H4         -7.5472   -0.9547   11.8021 H         1 <0>         0.1292
     37 H5         -3.0829   -3.2742   10.7709 H         1 <0>         0.0915
     38 H6         -4.1533   -3.0069    9.3741 H         1 <0>         0.0721
     39 H7         -2.7223   -1.9748    9.6092 H         1 <0>         0.0925
     40 H8         -0.4704    2.5853   10.7172 H         1 <0>         0.0810
     41 H9         -1.7075    2.3321   11.9735 H         1 <0>         0.1025
     42 H10        -2.2707    4.2179   10.4006 H         1 <0>         0.0879
     43 H11        -3.4889    2.9193   10.3979 H         1 <0>         0.0782
     44 H12        -1.2186    3.2178    8.3791 H         1 <0>         0.1045
     45 H13        -3.5784    1.2878    8.5367 H         1 <0>         0.0762
     46 H14        -2.4253    1.3986    7.1845 H         1 <0>         0.0782
     47 H15        -0.5692    0.7838    8.6621 H         1 <0>         0.0820
     48 H16        -1.8607   -0.4346    8.8194 H         1 <0>         0.0942
     49 H17        -2.5649    3.3133    6.0463 H         1 <0>         0.4019
     50 H18        -3.8515    5.8275    6.0566 H         1 <0>         0.0834
     51 H19        -5.0998    4.5586    6.0458 H         1 <0>         0.0826
     52 H20        -5.3339    3.0621    4.1483 H         1 <0>         0.1377
     53 H21        -4.9967    2.7509    1.7291 H         1 <0>         0.1339
     54 H22        -2.0006    5.7861    1.7564 H         1 <0>         0.1345
     55 H23        -2.3437    6.1031    4.1740 H         1 <0>         0.1383
     56 H24        -3.4894    3.0276   -0.1540 H         1 <0>         0.1374
     57 H25        -2.2421    4.2973   -0.1434 H         1 <0>         0.1360
     58 H26        -3.9380    3.9677   -2.4648 H         1 <0>         0.1239
     59 H27        -4.5285    5.6429   -2.5801 H         1 <0>         0.1234
     60 H28        -2.8216    5.3260   -2.1872 H         1 <0>         0.1220
     61 H29        -5.8204    4.6376    0.6446 H         1 <0>         0.1206
     62 H30        -6.2281    5.2527   -0.9752 H         1 <0>         0.1230
     63 H31        -5.7373    3.5546   -0.7656 H         1 <0>         0.1235
     64 H32        -3.6573    2.3213   12.4122 H         1 <0>         0.0823
     65 H33        -4.4583    1.8125   13.9181 H         1 <0>         0.0864
     66 H34        -2.8632    1.1485   13.4903 H         1 <0>         0.1275
     67 H35        -6.9968    2.0008   12.6089 H         1 <0>         0.0725
     68 H36        -7.5717    0.6538   13.6205 H         1 <0>         0.0687
     69 H37        -6.0956    1.5397   14.0729 H         1 <0>         0.0755
     70 N3         -4.1743    4.9820   -0.6159 N.4       1 <0>        -0.3970
     71 H38        -4.0469    5.9328   -0.2499 H         1 <0>         0.4306
@<TRIPOS>BOND
     1    1    2 1
     2    1   33 1
     3    1   34 1
     4    1   35 1
     5    2    7 ar
     6    2    3 ar
     7    3    4 ar
     8    3   36 1
     9    4    5 ar
    10    4   32 1
    11    5    6 ar
    12    5   31 1
    13    6    7 ar
    14    6    9 1
    15    7    8 1
    16    8   37 1
    17    8   38 1
    18    8   39 1
    19    9   10 2
    20    9   11 2
    21    9   12 1
    22   12   17 1
    23   12   13 1
    24   13   14 1
    25   13   40 1
    26   13   41 1
    27   14   15 1
    28   14   42 1
    29   14   43 1
    30   15   16 1
    31   15   18 1
    32   15   44 1
    33   16   17 1
    34   16   45 1
    35   16   46 1
    36   17   47 1
    37   17   48 1
    38   18   19 2
    39   18   20 am
    40   20   21 1
    41   20   49 1
    42   21   22 1
    43   21   50 1
    44   21   51 1
    45   22   27 ar
    46   22   23 ar
    47   23   24 ar
    48   23   52 1
    49   24   25 ar
    50   24   53 1
    51   25   26 ar
    52   25   28 1
    53   26   27 ar
    54   26   54 1
    55   27   55 1
    56   28   56 1
    57   28   57 1
    58   28   70 1
    59   29   58 1
    60   29   59 1
    61   29   60 1
    62   29   70 1
    63   30   61 1
    64   30   62 1
    65   30   63 1
    66   30   70 1
    67   31   64 1
    68   31   65 1
    69   31   66 1
    70   32   67 1
    71   32   68 1
    72   32   69 1
    73   70   71 1
