@<TRIPOS>MOLECULE
ZINC20506996
   40    41     0     0     0
SMALL
USER_CHARGES
5-chloro-2-[(1R,5R)-3,3,5-trimethylcyclohexoxy]aniline
@<TRIPOS>ATOM
      1 C1         -0.1635    1.5449   -0.1821 C.3       1 <0>        -0.1494
      2 C2         -0.8056    1.8126    1.1806 C.3       1 <0>        -0.0907
      3 H1         -0.8170    2.8954    1.3743 H         1 <0>         0.0749
      4 C3         -2.2396    1.2791    1.1823 C.3       1 <0>        -0.1389
      5 C4         -2.8817    1.5467    2.5450 C.3       1 <0>         0.0905
      6 H2         -2.9628    2.6257    2.7427 H         1 <0>         0.0746
      7 C5         -2.0740    0.8418    3.6366 C.3       1 <0>        -0.1023
      8 C6         -0.6400    1.3753    3.6349 C.3       1 <0>        -0.0588
      9 C7          0.0021    1.1077    2.2722 C.3       1 <0>        -0.1076
     10 C8          0.1677    0.6704    4.7266 C.3       1 <0>        -0.1433
     11 C9         -0.6558    2.8813    3.9043 C.3       1 <0>        -0.1512
     12 O1         -4.2210    1.0484    2.5466 O.3       1 <0>        -0.3180
     13 C10        -5.1854    1.8680    2.0480 C.ar      1 <0>         0.0577
     14 C11        -4.8371    3.0755    1.4660 C.ar      1 <0>        -0.1523
     15 C12        -5.8182    3.9083    0.9598 C.ar      1 <0>        -0.1373
     16 C13        -7.1495    3.5388    1.0327 C.ar      1 <0>        -0.0164
     17 C14        -7.5050    2.3339    1.6116 C.ar      1 <0>        -0.1722
     18 C15        -6.5250    1.4918    2.1165 C.ar      1 <0>         0.2200
     19 N1         -6.8816    0.2697    2.6980 N.pl3     1 <0>        -0.8908
     20 Cl1        -8.3762    4.5892    0.3958 Cl        1 <0>        -0.0735
     21 H3         -0.7442    2.0517   -0.9669 H         1 <0>         0.0559
     22 H4         -0.1522    0.4621   -0.3757 H         1 <0>         0.0557
     23 H5          0.8675    1.9284   -0.1833 H         1 <0>         0.0575
     24 H6         -2.8203    1.7859    0.3975 H         1 <0>         0.0697
     25 H7         -2.2283    0.1964    0.9886 H         1 <0>         0.0746
     26 H8         -2.5356    1.0342    4.6163 H         1 <0>         0.0717
     27 H9         -2.0626   -0.2410    3.4429 H         1 <0>         0.0746
     28 H10         0.0135    0.0250    2.0785 H         1 <0>         0.0657
     29 H11         1.0331    1.4912    2.2710 H         1 <0>         0.0673
     30 H12         1.1987    1.0540    4.7254 H         1 <0>         0.0590
     31 H13         0.1791   -0.4124    4.5329 H         1 <0>         0.0569
     32 H14        -0.2940    0.8629    5.7063 H         1 <0>         0.0572
     33 H15         0.3752    3.2648    3.9031 H         1 <0>         0.0590
     34 H16        -1.1174    3.0737    4.8840 H         1 <0>         0.0568
     35 H17        -1.2365    3.3881    3.1195 H         1 <0>         0.0585
     36 H18        -3.7988    3.3671    1.4079 H         1 <0>         0.1357
     37 H19        -5.5445    4.8497    0.5067 H         1 <0>         0.1305
     38 H20        -8.5448    2.0470    1.6669 H         1 <0>         0.1351
     39 H21        -7.9398   -0.0260    2.7514 H         1 <0>         0.4179
     40 H22        -6.1037   -0.3951    3.1016 H         1 <0>         0.4255
@<TRIPOS>BOND
     1    1    2 1
     2    1   21 1
     3    1   22 1
     4    1   23 1
     5    2    3 1
     6    2    9 1
     7    2    4 1
     8    4    5 1
     9    4   24 1
    10    4   25 1
    11    5    6 1
    12    5    7 1
    13    5   12 1
    14    7    8 1
    15    7   26 1
    16    7   27 1
    17    8    9 1
    18    8   10 1
    19    8   11 1
    20    9   28 1
    21    9   29 1
    22   10   30 1
    23   10   31 1
    24   10   32 1
    25   11   33 1
    26   11   34 1
    27   11   35 1
    28   12   13 1
    29   13   18 ar
    30   13   14 ar
    31   14   15 ar
    32   14   36 1
    33   15   16 ar
    34   15   37 1
    35   16   17 ar
    36   16   20 1
    37   17   18 ar
    38   17   38 1
    39   18   19 1
    40   19   39 1
    41   19   40 1
