@<TRIPOS>MOLECULE
ZINC52978200
   45    46     0     0     0
SMALL
USER_CHARGES

@<TRIPOS>ATOM
      1 C1         -0.3575    0.9122    0.2175 C.3       1 <0>        -0.1775
      2 C2         -0.2096   -0.5995    0.0338 C.3       1 <0>         0.0553
      3 C3          0.5292   -1.1895    1.2367 C.3       1 <0>        -0.1779
      4 C4         -1.5957   -1.2379   -0.0767 C.3       1 <0>        -0.1772
      5 N1          0.5539   -0.8715   -1.1913 N.4       1 <0>        -0.5044
      6 C5          1.9234   -0.3626   -1.0380 C.3       1 <0>        -0.0145
      7 C6          2.6804   -0.5301   -2.3570 C.3       1 <0>        -0.0967
      8 H1          2.1223   -0.0485   -3.1599 H         1 <0>         0.0998
      9 C7          4.0621    0.1159   -2.2376 C.3       1 <0>        -0.0866
     10 C8          4.7525    0.0764   -3.5766 C.ar      1 <0>        -0.0803
     11 C9          5.5384   -1.0089   -3.9173 C.ar      1 <0>        -0.0953
     12 C10         6.1719   -1.0457   -5.1453 C.ar      1 <0>        -0.1126
     13 C11         6.0199    0.0027   -6.0333 C.ar      1 <0>        -0.0875
     14 C12         5.2335    1.0884   -5.6932 C.ar      1 <0>        -0.0893
     15 C13         4.5954    1.1223   -4.4661 C.ar      1 <0>        -0.0914
     16 Br1         5.0257    2.5232   -6.9073 Br        1 <0>        -0.0420
     17 C14         2.8389   -2.0197   -2.6684 C.3       1 <0>        -0.0642
     18 C15         3.4768   -2.7135   -1.4925 C.2       1 <0>         0.0505
     19 C16         2.8806   -3.7700   -0.8828 C.2       1 <0>        -0.2555
     20 S1          4.0806   -4.1368    0.3876 S.3       1 <0>         0.1502
     21 C17         5.1907   -2.9285    0.0126 C.2       1 <0>         0.0393
     22 N2          4.6416   -2.3260   -1.0124 N.2       1 <0>        -0.5111
     23 H2          0.6299    1.3670    0.2963 H         1 <0>         0.0816
     24 H3         -0.8839    1.3325   -0.6395 H         1 <0>         0.0833
     25 H4         -0.9241    1.1140    1.1266 H         1 <0>         0.1063
     26 H5         -0.0373   -0.9877    2.1458 H         1 <0>         0.1059
     27 H6          0.6346   -2.2665    1.1059 H         1 <0>         0.0807
     28 H7          1.5166   -0.7347    1.3155 H         1 <0>         0.0805
     29 H8         -2.1549   -0.7557   -0.8785 H         1 <0>         0.0838
     30 H9         -1.4899   -2.3005   -0.2956 H         1 <0>         0.0804
     31 H10        -2.1297   -1.1124    0.8652 H         1 <0>         0.1070
     32 H11         0.5814   -1.8665   -1.3565 H         1 <0>         0.4218
     33 H12         1.8906    0.6933   -0.7695 H         1 <0>         0.1371
     34 H13         2.4330   -0.9214   -0.2531 H         1 <0>         0.1319
     35 H14         3.9525    1.1515   -1.9158 H         1 <0>         0.0762
     36 H15         4.6569   -0.4309   -1.5059 H         1 <0>         0.1263
     37 H16         5.6577   -1.8280   -3.2236 H         1 <0>         0.1354
     38 H17         6.7860   -1.8935   -5.4108 H         1 <0>         0.1326
     39 H18         6.5154   -0.0258   -6.9925 H         1 <0>         0.1347
     40 H19         3.9782    1.9682   -4.2015 H         1 <0>         0.1297
     41 H20         1.8592   -2.4570   -2.8607 H         1 <0>         0.0774
     42 H21         3.4703   -2.1417   -3.5485 H         1 <0>         0.1106
     43 H22         1.9411   -4.2542   -1.1046 H         1 <0>         0.1946
     44 H23         6.1301   -2.7066    0.4971 H         1 <0>         0.2244
     45 H24         0.1102   -0.4130   -1.9729 H         1 <0>         0.4264
@<TRIPOS>BOND
     1    1    2 1
     2    1   23 1
     3    1   24 1
     4    1   25 1
     5    2    3 1
     6    2    4 1
     7    2    5 1
     8    3   26 1
     9    3   27 1
    10    3   28 1
    11    4   29 1
    12    4   30 1
    13    4   31 1
    14    5    6 1
    15    5   32 1
    16    5   45 1
    17    6    7 1
    18    6   33 1
    19    6   34 1
    20    7    8 1
    21    7    9 1
    22    7   17 1
    23    9   10 1
    24    9   35 1
    25    9   36 1
    26   10   15 ar
    27   10   11 ar
    28   11   12 ar
    29   11   37 1
    30   12   13 ar
    31   12   38 1
    32   13   14 ar
    33   13   39 1
    34   14   15 ar
    35   14   16 1
    36   15   40 1
    37   17   18 1
    38   17   41 1
    39   17   42 1
    40   18   22 1
    41   18   19 2
    42   19   20 1
    43   19   43 1
    44   20   21 1
    45   21   22 2
    46   21   44 1
