@<TRIPOS>MOLECULE
ZINC48396547
   37    39     0     0     0
SMALL
USER_CHARGES

@<TRIPOS>ATOM
      1 C1          0.1220    1.1554    0.7621 C.ar      1 <0>        -0.1182
      2 C2          1.3091    1.8591    0.7567 C.ar      1 <0>        -0.0875
      3 C3          2.3822    1.4143    0.0020 C.ar      1 <0>        -0.1125
      4 C4          2.2662    0.2593   -0.7503 C.ar      1 <0>        -0.0790
      5 C5          1.0782   -0.4495   -0.7477 C.ar      1 <0>        -0.1347
      6 C6          0.0024   -0.0046    0.0080 C.ar      1 <0>         0.1490
      7 N1         -1.1979   -0.7220    0.0100 N.am      1 <0>        -0.6702
      8 C7         -2.3721   -0.0707    0.1269 C.2       1 <0>         0.5413
      9 O1         -2.3949    1.1457    0.1338 O.2       1 <0>        -0.4950
     10 C8         -3.6234   -0.8290    0.2458 C.2       1 <0>        -0.1778
     11 C9         -4.7521   -0.1540    0.3529 C.2       1 <0>         0.0112
     12 C10        -6.1000   -0.8000    0.4901 C.3       1 <0>        -0.0895
     13 C11        -6.0259   -2.2681    0.0657 C.3       1 <0>        -0.1208
     14 C12        -4.8432   -2.9249    0.7880 C.3       1 <0>        -0.1225
     15 C13        -3.5465   -2.3279    0.2325 C.3       1 <0>        -0.0781
     16 Cl1        -4.6735    1.5802    0.3349 Cl        1 <0>        -0.0357
     17 C14         3.5661   -0.0099   -1.4779 C.3       1 <0>        -0.0818
     18 C15         4.3359    1.3272   -1.4378 C.3       1 <0>        -0.1212
     19 C16         3.7682    1.9987   -0.1694 C.3       1 <0>        -0.0817
     20 H1         -0.7108    1.5036    1.3551 H         1 <0>         0.1358
     21 H2          1.4019    2.7612    1.3433 H         1 <0>         0.1234
     22 H3          0.9877   -1.3513   -1.3350 H         1 <0>         0.1223
     23 H4         -1.1855   -1.6884   -0.0727 H         1 <0>         0.4087
     24 H5         -6.4255   -0.7400    1.5286 H         1 <0>         0.0957
     25 H6         -6.8174   -0.2768   -0.1422 H         1 <0>         0.0931
     26 H7         -6.9505   -2.7758    0.3406 H         1 <0>         0.0798
     27 H8         -5.8771   -2.3307   -1.0123 H         1 <0>         0.0719
     28 H9         -4.9125   -2.7282    1.8578 H         1 <0>         0.0712
     29 H10        -4.8561   -4.0001    0.6089 H         1 <0>         0.0772
     30 H11        -3.3947   -2.6729   -0.7902 H         1 <0>         0.0851
     31 H12        -2.7084   -2.6523    0.8493 H         1 <0>         0.0803
     32 H13         4.1323   -0.7877   -0.9655 H         1 <0>         0.0810
     33 H14         3.3688   -0.3019   -2.5093 H         1 <0>         0.0750
     34 H15         5.4075    1.1545   -1.3382 H         1 <0>         0.0775
     35 H16         4.1194    1.9256   -2.3228 H         1 <0>         0.0727
     36 H17         3.7090    3.0784   -0.3073 H         1 <0>         0.0746
     37 H18         4.3886    1.7605    0.6946 H         1 <0>         0.0795
@<TRIPOS>BOND
     1    1    6 ar
     2    1    2 ar
     3    1   20 1
     4    2    3 ar
     5    2   21 1
     6    3   19 1
     7    3    4 ar
     8    4    5 ar
     9    4   17 1
    10    5    6 ar
    11    5   22 1
    12    6    7 1
    13    7    8 am
    14    7   23 1
    15    8    9 2
    16    8   10 1
    17   10   15 1
    18   10   11 2
    19   11   12 1
    20   11   16 1
    21   12   13 1
    22   12   24 1
    23   12   25 1
    24   13   14 1
    25   13   26 1
    26   13   27 1
    27   14   15 1
    28   14   28 1
    29   14   29 1
    30   15   30 1
    31   15   31 1
    32   17   18 1
    33   17   32 1
    34   17   33 1
    35   18   19 1
    36   18   34 1
    37   18   35 1
    38   19   36 1
    39   19   37 1
