@<TRIPOS>MOLECULE
ZINC03840907
   70    73     0     0     0
SMALL
USER_CHARGES
N-[1-(diethylcarbamoyl)ethyl-hydroxy-dimethyl-BLAHyl]pyridine-4-carboxamide
@<TRIPOS>ATOM
      1 C1         -3.4933    1.0430   -1.0377 C.3       1 <0>        -0.1739
      2 C2         -2.1856    0.2853   -0.7995 C.3       1 <0>         0.1012
      3 N1         -1.0517    1.1540   -1.1250 N.am      1 <0>        -0.6140
      4 C3         -0.4673    1.1232   -2.4681 C.3       1 <0>         0.1085
      5 C4          0.6493    0.0782   -2.5145 C.3       1 <0>        -0.1673
      6 C5         -0.5462    1.9814   -0.1889 C.2       1 <0>         0.5236
      7 O1          0.3283    2.7684   -0.4837 O.2       1 <0>        -0.5314
      8 C6         -1.0675    1.9287    1.2240 C.3       1 <0>        -0.1131
      9 H1         -1.7084    1.0550    1.3425 H         1 <0>         0.0902
     10 C7          0.1084    1.8344    2.1983 C.3       1 <0>        -0.1476
     11 C8         -1.8730    3.1958    1.5181 C.3       1 <0>        -0.1000
     12 H2         -2.6359    3.3265    0.7506 H         1 <0>         0.0809
     13 C9         -0.9372    4.4051    1.5159 C.3       1 <0>        -0.1280
     14 C10        -1.7280    5.6761    1.8345 C.3       1 <0>        -0.1114
     15 C11        -2.3630    5.5292    3.2257 C.3       1 <0>        -0.0438
     16 C12        -1.2375    5.2090    4.2263 C.3       1 <0>        -0.0337
     17 C13        -1.8459    4.6687    5.4736 C.2       1 <0>        -0.2330
     18 C14        -3.1113    4.2087    5.6534 C.2       1 <0>         0.0988
     19 N2         -3.4064    3.7740    6.8757 N.2       1 <0>        -0.5373
     20 C15        -2.5281    3.7896    7.8571 C.2       1 <0>         0.2752
     21 S1         -1.1255    4.4614    7.0803 S.3       1 <0>         0.1609
     22 N3         -2.6827    3.3758    9.1738 N.am      1 <0>        -0.6038
     23 C16        -1.6521    3.4744   10.0366 C.2       1 <0>         0.5632
     24 O2         -0.5874    3.9254    9.6625 O.2       1 <0>        -0.4870
     25 C17        -1.8170    3.0332   11.4407 C.ar      1 <0>        -0.0875
     26 C18        -3.0352    2.5168   11.8933 C.ar      1 <0>        -0.1401
     27 C19        -3.1435    2.1129   13.2099 C.ar      1 <0>         0.1028
     28 N4         -2.1221    2.2184   14.0365 N.ar      1 <0>        -0.4619
     29 C20        -0.9584    2.7040   13.6523 C.ar      1 <0>         0.1028
     30 C21        -0.7606    3.1268   12.3522 C.ar      1 <0>        -0.1076
     31 C22        -4.0985    4.2135    4.4931 C.3       1 <0>         0.0007
     32 H3         -4.6657    3.2827    4.4939 H         1 <0>         0.0966
     33 C23        -3.3317    4.3422    3.1817 C.3       1 <0>        -0.0607
     34 H4         -4.0437    4.4989    2.3714 H         1 <0>         0.0859
     35 C24        -2.5457    3.0652    2.8875 C.3       1 <0>         0.1130
     36 H5         -1.7852    2.9193    3.6547 H         1 <0>         0.0645
     37 O3         -3.4371    1.9484    2.8775 O.3       1 <0>        -0.5580
     38 C25        -5.0573    5.3964    4.6428 C.3       1 <0>        -0.1553
     39 C26        -3.0879    6.8160    3.6250 C.3       1 <0>        -0.1478
     40 H6         -3.5540    1.3431   -2.0838 H         1 <0>         0.0581
     41 H7         -4.3370    0.3967   -0.7955 H         1 <0>         0.0701
     42 H8         -3.5206    1.9291   -0.4034 H         1 <0>         0.0619
     43 H9         -2.1584   -0.6007   -1.4338 H         1 <0>         0.0807
     44 H10        -2.1249   -0.0147    0.2466 H         1 <0>         0.0805
     45 H11        -1.2380    0.8639   -3.1938 H         1 <0>         0.0757
     46 H12        -0.0571    2.1041   -2.7084 H         1 <0>         0.0845
     47 H13         1.4201    0.3376   -1.7887 H         1 <0>         0.0577
     48 H14         0.2392   -0.9027   -2.2742 H         1 <0>         0.0550
     49 H15         1.0842    0.0553   -3.5138 H         1 <0>         0.0671
     50 H16         0.6409    0.8973    2.0355 H         1 <0>         0.0583
     51 H17        -0.2644    1.8672    3.2221 H         1 <0>         0.0650
     52 H18         0.7865    2.6713    2.0316 H         1 <0>         0.0758
     53 H19        -0.1610    4.2636    2.2680 H         1 <0>         0.0740
     54 H20        -0.4757    4.5040    0.5334 H         1 <0>         0.0861
     55 H21        -1.0570    6.5350    1.8281 H         1 <0>         0.0716
     56 H22        -2.5106    5.8159    1.0887 H         1 <0>         0.0682
     57 H23        -0.5659    4.4663    3.7957 H         1 <0>         0.0925
     58 H24        -0.6819    6.1185    4.4548 H         1 <0>         0.0832
     59 H25        -3.5325    3.0159    9.4725 H         1 <0>         0.4247
     60 H26        -3.8774    2.4314   11.2227 H         1 <0>         0.1415
     61 H27        -4.0790    1.7093   13.5680 H         1 <0>         0.1677
     62 H28        -0.1488    2.7726   14.3638 H         1 <0>         0.1695
     63 H29         0.1957    3.5233   12.0442 H         1 <0>         0.1535
     64 H30        -2.9959    1.0940    2.7752 H         1 <0>         0.3722
     65 H31        -4.5185    6.2513    5.0513 H         1 <0>         0.0715
     66 H32        -5.4672    5.6576    3.6672 H         1 <0>         0.0636
     67 H33        -5.8693    5.1229    5.3166 H         1 <0>         0.0542
     68 H34        -4.0817    6.8271    3.1774 H         1 <0>         0.0677
     69 H35        -3.1777    6.8606    4.7104 H         1 <0>         0.0661
     70 H36        -2.5207    7.6772    3.2717 H         1 <0>         0.0572
@<TRIPOS>BOND
     1    1    2 1
     2    1   40 1
     3    1   41 1
     4    1   42 1
     5    2    3 1
     6    2   43 1
     7    2   44 1
     8    3    4 1
     9    3    6 am
    10    4    5 1
    11    4   45 1
    12    4   46 1
    13    5   47 1
    14    5   48 1
    15    5   49 1
    16    6    7 2
    17    6    8 1
    18    8    9 1
    19    8   10 1
    20    8   11 1
    21   10   50 1
    22   10   51 1
    23   10   52 1
    24   11   12 1
    25   11   35 1
    26   11   13 1
    27   13   14 1
    28   13   53 1
    29   13   54 1
    30   14   15 1
    31   14   55 1
    32   14   56 1
    33   15   33 1
    34   15   16 1
    35   15   39 1
    36   16   17 1
    37   16   57 1
    38   16   58 1
    39   17   21 1
    40   17   18 2
    41   18   19 1
    42   18   31 1
    43   19   20 2
    44   20   21 1
    45   20   22 1
    46   22   23 am
    47   22   59 1
    48   23   24 2
    49   23   25 1
    50   25   30 ar
    51   25   26 ar
    52   26   27 ar
    53   26   60 1
    54   27   28 ar
    55   27   61 1
    56   28   29 ar
    57   29   30 ar
    58   29   62 1
    59   30   63 1
    60   31   32 1
    61   31   33 1
    62   31   38 1
    63   33   34 1
    64   33   35 1
    65   35   36 1
    66   35   37 1
    67   37   64 1
    68   38   65 1
    69   38   66 1
    70   38   67 1
    71   39   68 1
    72   39   69 1
    73   39   70 1
