@<TRIPOS>MOLECULE
ZINC10343863
   75    78     0     0     0
SMALL
USER_CHARGES
N-(3-dimethylaminopropyl)-2-[(2-methoxyphenyl)-dimethyl-oxo-BLAHyl]-acetamide
@<TRIPOS>ATOM
      1 C1         -3.7479   -9.7949    3.1091 C.3       1 <0>        -0.1571
      2 C2         -4.1217  -10.3161    1.7200 C.3       1 <0>        -0.0528
      3 C3         -3.4391   -9.4675    0.6476 C.3       1 <0>        -0.1031
      4 C4         -3.8846   -8.0227    0.7748 C.2       1 <0>         0.2638
      5 C5         -5.1283   -7.7193    1.1862 C.2       1 <0>        -0.2770
      6 C6         -5.7152   -6.3334    1.3129 C.3       1 <0>         0.2175
      7 H1         -6.7063   -6.3376    0.8593 H         1 <0>         0.1187
      8 N1         -4.9390   -5.2807    0.7001 N.pl3     1 <0>        -0.4708
      9 C7         -3.7235   -5.0320    1.3247 C.ar      1 <0>         0.1089
     10 C8         -3.5278   -3.8628    2.0503 C.ar      1 <0>        -0.1534
     11 C9         -2.3162   -3.6493    2.6822 C.ar      1 <0>        -0.0975
     12 C10        -1.3050   -4.5890    2.5978 C.ar      1 <0>        -0.1216
     13 C11        -1.4944   -5.7503    1.8676 C.ar      1 <0>        -0.1037
     14 C12        -2.7051   -5.9569    1.2276 C.ar      1 <0>         0.1362
     15 N2         -2.9451   -7.0933    0.4589 N.pl3     1 <0>        -0.6825
     16 C13        -5.7289   -4.0484    0.5759 C.3       1 <0>         0.0386
     17 C14        -6.8515   -4.2681   -0.4052 C.2       1 <0>         0.5296
     18 O1         -6.9269   -5.3128   -1.0165 O.2       1 <0>        -0.5049
     19 N3         -7.7718   -3.3035   -0.6032 N.am      1 <0>        -0.7388
     20 C15        -8.8632   -3.5171   -1.5569 C.3       1 <0>         0.1269
     21 C16        -9.7601   -2.2780   -1.5914 C.3       1 <0>        -0.1637
     22 C17       -10.8999   -2.5011   -2.5875 C.3       1 <0>        -0.0030
     23 C18       -12.7228   -1.3884   -3.7283 C.3       1 <0>        -0.0428
     24 C19       -12.4502   -1.1244   -1.3369 C.3       1 <0>        -0.0476
     25 C20        -5.8679   -6.0187    2.7788 C.ar      1 <0>        -0.1340
     26 C21        -4.9345   -6.4817    3.6862 C.ar      1 <0>        -0.0640
     27 C22        -5.0740   -6.1933    5.0310 C.ar      1 <0>        -0.1502
     28 C23        -6.1473   -5.4406    5.4715 C.ar      1 <0>        -0.0777
     29 C24        -7.0825   -4.9747    4.5682 C.ar      1 <0>        -0.2060
     30 C25        -6.9424   -5.2591    3.2174 C.ar      1 <0>         0.1321
     31 O2         -7.8587   -4.7977    2.3260 O.3       1 <0>        -0.3155
     32 C26        -8.9390   -4.0220    2.8489 C.3       1 <0>         0.0283
     33 C27        -6.0217   -8.7539    1.5532 C.2       1 <0>         0.4011
     34 O3         -7.1434   -8.4572    1.9152 O.2       1 <0>        -0.4749
     35 C28        -5.6362  -10.2017    1.5125 C.3       1 <0>        -0.1504
     36 C29        -3.6880  -11.7765    1.5792 C.3       1 <0>        -0.1425
     37 H2         -4.2612  -10.3845    3.8687 H         1 <0>         0.0623
     38 H3         -2.6704   -9.8786    3.2508 H         1 <0>         0.0626
     39 H4         -4.0459   -8.7501    3.1975 H         1 <0>         0.0609
     40 H5         -2.3579   -9.5257    0.7733 H         1 <0>         0.0910
     41 H6         -3.7091   -9.8444   -0.3389 H         1 <0>         0.0945
     42 H7         -4.3149   -3.1266    2.1196 H         1 <0>         0.1215
     43 H8         -2.1586   -2.7419    3.2463 H         1 <0>         0.1241
     44 H9         -0.3657   -4.4166    3.1021 H         1 <0>         0.1290
     45 H10        -0.7070   -6.4861    1.7978 H         1 <0>         0.1322
     46 H11        -2.4152   -7.2279   -0.3424 H         1 <0>         0.4090
     47 H12        -5.0888   -3.2408    0.2206 H         1 <0>         0.1066
     48 H13        -6.1431   -3.7827    1.5485 H         1 <0>         0.0840
     49 H14        -7.7116   -2.4680   -0.1142 H         1 <0>         0.3992
     50 H15        -9.4505   -4.3823   -1.2492 H         1 <0>         0.0772
     51 H16        -8.4490   -3.6936   -2.5495 H         1 <0>         0.0766
     52 H17        -9.1728   -1.4129   -1.8991 H         1 <0>         0.0941
     53 H18       -10.1743   -2.1015   -0.5988 H         1 <0>         0.0930
     54 H19       -11.4872   -3.3662   -2.2797 H         1 <0>         0.1357
     55 H20       -10.4856   -2.6776   -3.5801 H         1 <0>         0.1342
     56 H21       -13.3505   -2.2708   -3.6037 H         1 <0>         0.1241
     57 H22       -13.3477   -0.4953   -3.7297 H         1 <0>         0.1235
     58 H23       -12.1840   -1.4563   -4.6733 H         1 <0>         0.1226
     59 H24       -11.7132   -1.0004   -0.5435 H         1 <0>         0.1210
     60 H25       -13.0809   -0.2369   -1.3890 H         1 <0>         0.1236
     61 H26       -13.0680   -1.9972   -1.1257 H         1 <0>         0.1244
     62 H27        -4.0955   -7.0698    3.3447 H         1 <0>         0.1257
     63 H28        -4.3434   -6.5562    5.7388 H         1 <0>         0.1233
     64 H29        -6.2540   -5.2167    6.5226 H         1 <0>         0.1249
     65 H30        -7.9203   -4.3866    4.9126 H         1 <0>         0.1255
     66 H31        -9.5955   -3.7175    2.0338 H         1 <0>         0.0894
     67 H32        -9.5024   -4.6201    3.5652 H         1 <0>         0.0572
     68 H33        -8.5430   -3.1368    3.3466 H         1 <0>         0.0537
     69 H34        -6.1106  -10.7000    2.2382 H         1 <0>         0.0859
     70 H35        -5.9074  -10.6249    0.5453 H         1 <0>         0.1004
     71 H36        -3.9434  -12.1369    0.5827 H         1 <0>         0.0610
     72 H37        -2.6107  -11.8516    1.7277 H         1 <0>         0.0626
     73 H38        -4.2008  -12.3815    2.3269 H         1 <0>         0.0633
     74 N4        -11.7442   -1.2885   -2.6251 N.4       1 <0>        -0.3977
     75 H39       -11.1452   -0.4698   -2.7837 H         1 <0>         0.4312
@<TRIPOS>BOND
     1    1    2 1
     2    1   37 1
     3    1   38 1
     4    1   39 1
     5    2   35 1
     6    2    3 1
     7    2   36 1
     8    3    4 1
     9    3   40 1
    10    3   41 1
    11    4   15 1
    12    4    5 2
    13    5    6 1
    14    5   33 1
    15    6    7 1
    16    6    8 1
    17    6   25 1
    18    8    9 1
    19    8   16 1
    20    9   14 ar
    21    9   10 ar
    22   10   11 ar
    23   10   42 1
    24   11   12 ar
    25   11   43 1
    26   12   13 ar
    27   12   44 1
    28   13   14 ar
    29   13   45 1
    30   14   15 1
    31   15   46 1
    32   16   17 1
    33   16   47 1
    34   16   48 1
    35   17   18 2
    36   17   19 am
    37   19   20 1
    38   19   49 1
    39   20   21 1
    40   20   50 1
    41   20   51 1
    42   21   22 1
    43   21   52 1
    44   21   53 1
    45   22   54 1
    46   22   55 1
    47   22   74 1
    48   23   56 1
    49   23   57 1
    50   23   58 1
    51   23   74 1
    52   24   59 1
    53   24   60 1
    54   24   61 1
    55   24   74 1
    56   25   30 ar
    57   25   26 ar
    58   26   27 ar
    59   26   62 1
    60   27   28 ar
    61   27   63 1
    62   28   29 ar
    63   28   64 1
    64   29   30 ar
    65   29   65 1
    66   30   31 1
    67   31   32 1
    68   32   66 1
    69   32   67 1
    70   32   68 1
    71   33   34 2
    72   33   35 1
    73   35   69 1
    74   35   70 1
    75   36   71 1
    76   36   72 1
    77   36   73 1
    78   74   75 1
