@<TRIPOS>MOLECULE
ZINC62495910
   35    37     0     0     0
SMALL
USER_CHARGES

@<TRIPOS>ATOM
      1 C1         -0.0167    1.3779    0.0096 C.ar      1 <0>        -0.0841
      2 C2          1.1711    2.0854    0.0021 C.ar      1 <0>        -0.1220
      3 C3          2.3773    1.4107   -0.0130 C.ar      1 <0>        -0.0719
      4 C4          2.3960    0.0283   -0.0201 C.ar      1 <0>        -0.1852
      5 C5          1.2086   -0.6790   -0.0117 C.ar      1 <0>        -0.0285
      6 C6          0.0021   -0.0041    0.0020 C.ar      1 <0>        -0.1022
      7 C7          1.2291   -2.1858   -0.0204 C.3       1 <0>        -0.0946
      8 C8          1.3768   -2.7022    1.4122 C.3       1 <0>         0.0665
      9 H1          2.2608   -2.2592    1.8709 H         1 <0>         0.0955
     10 C9          1.5166   -4.2311    1.3963 C.3       1 <0>         0.0934
     11 N1          1.6058   -4.6845    2.7949 N.pl3     1 <0>        -0.7545
     12 C10         0.7472   -4.0865    3.7309 C.ar      1 <0>         0.1375
     13 C11         0.5787   -4.6568    4.9826 C.ar      1 <0>        -0.1564
     14 C12        -0.2655   -4.0623    5.9024 C.ar      1 <0>        -0.1077
     15 C13        -0.9404   -2.9013    5.5737 C.ar      1 <0>        -0.1364
     16 C14        -0.7769   -2.3291    4.3259 C.ar      1 <0>        -0.1077
     17 C15         0.0666   -2.9188    3.3967 C.ar      1 <0>         0.0601
     18 O1          0.2167   -2.3508    2.1702 O.3       1 <0>        -0.3064
     19 C16         3.7112   -0.7073   -0.0376 C.3       1 <0>         0.5074
     20 F1          4.7620    0.2161   -0.0440 F         1 <0>        -0.1745
     21 F2          3.8081   -1.5163    1.0997 F         1 <0>        -0.1737
     22 F3          3.7842   -1.5049   -1.1847 F         1 <0>        -0.1745
     23 H2         -0.9591    1.9051    0.0259 H         1 <0>         0.1339
     24 H3          1.1565    3.1653    0.0076 H         1 <0>         0.1354
     25 H4          3.3051    1.9634   -0.0196 H         1 <0>         0.1385
     26 H5         -0.9258   -0.5567    0.0079 H         1 <0>         0.1364
     27 H6          0.2982   -2.5593   -0.4471 H         1 <0>         0.0981
     28 H7          2.0695   -2.5343   -0.6207 H         1 <0>         0.1031
     29 H8          0.6448   -4.6772    0.9178 H         1 <0>         0.0711
     30 H9          2.4207   -4.5142    0.8574 H         1 <0>         0.0937
     31 H10         2.2358   -5.3728    3.0600 H         1 <0>         0.4074
     32 H11         1.1055   -5.5640    5.2392 H         1 <0>         0.1233
     33 H12        -0.3981   -4.5055    6.8783 H         1 <0>         0.1241
     34 H13        -1.5985   -2.4395    6.2948 H         1 <0>         0.1261
     35 H14        -1.3069   -1.4223    4.0745 H         1 <0>         0.1288
@<TRIPOS>BOND
     1    1    6 ar
     2    1    2 ar
     3    1   23 1
     4    2    3 ar
     5    2   24 1
     6    3    4 ar
     7    3   25 1
     8    4    5 ar
     9    4   19 1
    10    5    6 ar
    11    5    7 1
    12    6   26 1
    13    7    8 1
    14    7   27 1
    15    7   28 1
    16    8    9 1
    17    8   18 1
    18    8   10 1
    19   10   11 1
    20   10   29 1
    21   10   30 1
    22   11   12 1
    23   11   31 1
    24   12   17 ar
    25   12   13 ar
    26   13   14 ar
    27   13   32 1
    28   14   15 ar
    29   14   33 1
    30   15   16 ar
    31   15   34 1
    32   16   17 ar
    33   16   35 1
    34   17   18 1
    35   19   20 1
    36   19   21 1
    37   19   22 1
