@<TRIPOS>MOLECULE
ZINC15042000
   23    25     0     0     0
SMALL
USER_CHARGES

@<TRIPOS>ATOM
      1 C1         -0.0166    1.3751    0.0096 C.ar      1 <0>        -0.1140
      2 C2          1.1703    2.0868    0.0021 C.ar      1 <0>        -0.1333
      3 C3          2.3826    1.4215   -0.0135 C.ar      1 <0>        -0.1000
      4 C4          2.4157    0.0409   -0.0216 C.ar      1 <0>        -0.0805
      5 C5          1.2216   -0.6825   -0.0136 C.ar      1 <0>         0.0597
      6 C6          0.0021   -0.0041    0.0020 C.ar      1 <0>        -0.0978
      7 C7          1.2489   -2.1610   -0.0228 C.2       1 <0>         0.1959
      8 N1          2.3823   -2.9270   -0.0385 N.2       1 <0>        -0.5210
      9 C8          1.9799   -4.2470   -0.0420 C.ar      1 <0>        -0.0508
     10 C9          2.6327   -5.4684   -0.0551 C.ar      1 <0>         0.1441
     11 N2          1.9406   -6.5912   -0.0545 N.ar      1 <0>        -0.5167
     12 C10         0.6185   -6.6069   -0.0413 C.ar      1 <0>         0.0211
     13 C11        -0.1089   -5.4506   -0.0278 C.ar      1 <0>        -0.1341
     14 C12         0.5700   -4.2253   -0.0276 C.ar      1 <0>         0.0322
     15 N3          0.1896   -2.9355   -0.0112 N.2       1 <0>        -0.5610
     16 Br1         4.0741   -0.8674   -0.0441 Br        1 <0>        -0.0193
     17 H1         -0.9598    1.9009    0.0259 H         1 <0>         0.1228
     18 H2          1.1497    3.1666    0.0081 H         1 <0>         0.1226
     19 H3          3.3053    1.9828   -0.0196 H         1 <0>         0.1262
     20 H4         -0.9251   -0.5578    0.0079 H         1 <0>         0.1353
     21 H5          3.7121   -5.5016   -0.0662 H         1 <0>         0.1325
     22 H6          0.1020   -7.5554   -0.0415 H         1 <0>         0.1310
     23 H7         -1.1884   -5.4807   -0.0177 H         1 <0>         0.1051
@<TRIPOS>BOND
     1    1    6 ar
     2    1    2 ar
     3    1   17 1
     4    2    3 ar
     5    2   18 1
     6    3    4 ar
     7    3   19 1
     8    4    5 ar
     9    4   16 1
    10    5    6 ar
    11    5    7 1
    12    6   20 1
    13    7    8 1
    14    7   15 2
    15    8    9 1
    16    9   10 ar
    17    9   14 ar
    18   10   21 1
    19   10   11 ar
    20   11   12 ar
    21   12   22 1
    22   12   13 ar
    23   13   23 1
    24   13   14 ar
    25   14   15 1
