@<TRIPOS>MOLECULE
ZINC39691177
   66    69     0     0     0
SMALL
USER_CHARGES

@<TRIPOS>ATOM
      1 C1         -0.4393   -2.8649    2.5012 C.3       1 <0>        -0.1213
      2 C2         -1.7439   -3.1801    1.8159 C.ar      1 <0>        -0.0774
      3 C3         -1.7463   -3.8699    0.6177 C.ar      1 <0>        -0.1166
      4 C4         -2.9429   -4.1590   -0.0108 C.ar      1 <0>        -0.1102
      5 C5         -4.1374   -3.7588    0.5589 C.ar      1 <0>        -0.1230
      6 C6         -4.1350   -3.0700    1.7572 C.ar      1 <0>        -0.1108
      7 C7         -2.9383   -2.7845    2.3881 C.ar      1 <0>        -0.0948
      8 C8         -2.9359   -2.0381    3.6972 C.3       1 <0>        -0.0874
      9 C9         -2.7373   -0.5444    3.4323 C.3       1 <0>         0.1201
     10 N1         -2.7350    0.1812    4.7050 N.am      1 <0>        -0.7291
     11 C10        -2.5738    1.5192    4.7175 C.2       1 <0>         0.5147
     12 O1         -2.4307    2.1226    3.6752 O.2       1 <0>        -0.5176
     13 C11        -2.5715    2.2657    6.0267 C.3       1 <0>        -0.1153
     14 H1         -2.1939    1.6277    6.8258 H         1 <0>         0.1202
     15 C12        -1.7173    3.5482    5.9132 C.3       1 <0>         0.1118
     16 N2         -2.6901    4.6185    5.5905 N.am      1 <0>        -0.6187
     17 C13        -3.8776    4.2993    6.4188 C.3       1 <0>         0.1104
     18 C14        -3.9877    2.7626    6.3622 C.3       1 <0>        -0.0733
     19 C15        -4.4334    2.2149    7.7146 C.3       1 <0>        -0.1335
     20 C16        -5.8659    2.6746    7.9995 C.3       1 <0>        -0.0105
     21 N3         -6.7568    2.1938    6.9366 N.4       1 <0>        -0.5045
     22 C17        -6.3779    2.7989    5.6540 C.3       1 <0>        -0.0093
     23 C18        -4.9671    2.3443    5.2698 C.3       1 <0>        -0.1469
     24 C19        -2.5310    5.6496    4.7372 C.2       1 <0>         0.5507
     25 O2         -3.4281    6.4506    4.5801 O.2       1 <0>        -0.5053
     26 C20        -1.2386    5.8072    3.9785 C.3       1 <0>         0.0454
     27 O3         -1.3136    6.9658    3.1453 O.3       1 <0>        -0.2878
     28 C21        -0.2220    7.2532    2.3886 C.ar      1 <0>         0.1387
     29 C22         0.8963    6.4334    2.4424 C.ar      1 <0>        -0.2061
     30 C23         2.0047    6.7269    1.6722 C.ar      1 <0>        -0.0645
     31 C24         2.0011    7.8366    0.8475 C.ar      1 <0>        -0.1428
     32 C25         0.8877    8.6562    0.7919 C.ar      1 <0>         0.0053
     33 C26        -0.2262    8.3631    1.5569 C.ar      1 <0>        -0.1395
     34 Cl1         0.8867   10.0492   -0.2442 Cl        1 <0>        -0.0519
     35 H2         -0.1764   -3.6804    3.1749 H         1 <0>         0.0734
     36 H3          0.3443   -2.7447    1.7532 H         1 <0>         0.0702
     37 H4         -0.5421   -1.9415    3.0713 H         1 <0>         0.0657
     38 H5         -0.8133   -4.1825    0.1727 H         1 <0>         0.1254
     39 H6         -2.9447   -4.6972   -0.9471 H         1 <0>         0.1256
     40 H7         -5.0723   -3.9841    0.0674 H         1 <0>         0.1239
     41 H8         -5.0680   -2.7571    2.2020 H         1 <0>         0.1186
     42 H9         -3.8874   -2.1935    4.2058 H         1 <0>         0.0756
     43 H10        -2.1243   -2.4070    4.3243 H         1 <0>         0.0826
     44 H11        -1.7858   -0.3890    2.9237 H         1 <0>         0.0766
     45 H12        -3.5489   -0.1755    2.8052 H         1 <0>         0.0723
     46 H13        -2.8495   -0.3013    5.5386 H         1 <0>         0.4001
     47 H14        -1.2206    3.7590    6.8602 H         1 <0>         0.0951
     48 H15        -0.9843    3.4470    5.1129 H         1 <0>         0.0971
     49 H16        -3.7256    4.6313    7.4458 H         1 <0>         0.0880
     50 H17        -4.7707    4.7607    5.9971 H         1 <0>         0.0899
     51 H18        -4.3978    1.1256    7.6956 H         1 <0>         0.0982
     52 H19        -3.7697    2.5876    8.4948 H         1 <0>         0.1228
     53 H20        -6.1931    2.2709    8.9577 H         1 <0>         0.1407
     54 H21        -5.8976    3.7636    8.0348 H         1 <0>         0.1333
     55 H22        -6.6846    1.1897    6.8676 H         1 <0>         0.4274
     56 H23        -7.0825    2.4868    4.8831 H         1 <0>         0.1389
     57 H24        -6.3973    3.8849    5.7451 H         1 <0>         0.1348
     58 H25        -4.6796    2.8083    4.3263 H         1 <0>         0.1230
     59 H26        -4.9508    1.2598    5.1624 H         1 <0>         0.0959
     60 H27        -0.4148    5.9193    4.6834 H         1 <0>         0.0955
     61 H28        -1.0704    4.9254    3.3602 H         1 <0>         0.1017
     62 H29         0.9001    5.5666    3.0866 H         1 <0>         0.1316
     63 H30         2.8752    6.0890    1.7145 H         1 <0>         0.1385
     64 H31         2.8688    8.0643    0.2461 H         1 <0>         0.1392
     65 H32        -1.0971    9.0001    1.5100 H         1 <0>         0.1444
     66 H33        -7.7085    2.4455    7.1577 H         1 <0>         0.4348
@<TRIPOS>BOND
     1    1    2 1
     2    1   35 1
     3    1   36 1
     4    1   37 1
     5    2    7 ar
     6    2    3 ar
     7    3    4 ar
     8    3   38 1
     9    4    5 ar
    10    4   39 1
    11    5    6 ar
    12    5   40 1
    13    6    7 ar
    14    6   41 1
    15    7    8 1
    16    8    9 1
    17    8   42 1
    18    8   43 1
    19    9   10 1
    20    9   44 1
    21    9   45 1
    22   10   11 am
    23   10   46 1
    24   11   12 2
    25   11   13 1
    26   13   14 1
    27   13   18 1
    28   13   15 1
    29   15   16 1
    30   15   47 1
    31   15   48 1
    32   16   17 1
    33   16   24 am
    34   17   18 1
    35   17   49 1
    36   17   50 1
    37   18   23 1
    38   18   19 1
    39   19   20 1
    40   19   51 1
    41   19   52 1
    42   20   21 1
    43   20   53 1
    44   20   54 1
    45   21   22 1
    46   21   55 1
    47   21   66 1
    48   22   23 1
    49   22   56 1
    50   22   57 1
    51   23   58 1
    52   23   59 1
    53   24   25 2
    54   24   26 1
    55   26   27 1
    56   26   60 1
    57   26   61 1
    58   27   28 1
    59   28   33 ar
    60   28   29 ar
    61   29   30 ar
    62   29   62 1
    63   30   31 ar
    64   30   63 1
    65   31   32 ar
    66   31   64 1
    67   32   33 ar
    68   32   34 1
    69   33   65 1
