@<TRIPOS>MOLECULE
ZINC43597304
   32    33     0     0     0
SMALL
USER_CHARGES

@<TRIPOS>ATOM
      1 C1         -0.0187    1.5258    0.0104 C.3       1 <0>        -0.1602
      2 C2          0.0021   -0.0041    0.0020 C.3       1 <0>         0.2543
      3 H1          0.5123   -0.3556   -0.8948 H         1 <0>         0.0955
      4 C3         -1.4117   -0.5257    0.0127 C.2       1 <0>        -0.1339
      5 C4         -2.1573   -0.9923   -1.0187 C.2       1 <0>        -0.1612
      6 C5         -3.4466   -1.4250   -0.7719 C.2       1 <0>        -0.1523
      7 C6         -3.9274   -1.3700    0.4943 C.2       1 <0>        -0.1946
      8 S1         -2.5366   -0.6968    1.3885 S.3       1 <0>         0.0527
      9 N1          0.7106   -0.4894    1.1889 N.pl3     1 <0>        -0.6614
     10 C7          0.2181   -0.1495    2.5261 C.3       1 <0>         0.1050
     11 C8          1.8589   -1.2783    1.0452 C.ar      1 <0>         0.1324
     12 C9          3.1093   -0.6786    0.9785 C.ar      1 <0>        -0.0666
     13 C10         4.2416   -1.4563    0.8363 C.ar      1 <0>        -0.1793
     14 C11         4.1300   -2.8385    0.7604 C.ar      1 <0>         0.2201
     15 C12         2.8798   -3.4388    0.8270 C.ar      1 <0>        -0.1703
     16 C13         1.7472   -2.6612    0.9751 C.ar      1 <0>        -0.0467
     17 Br1         0.0450   -3.4788    1.0743 Br        1 <0>        -0.0382
     18 N2          5.2781   -3.6266    0.6162 N.pl3     1 <0>        -0.8763
     19 H2          1.0039    1.9031    0.0027 H         1 <0>         0.0659
     20 H3         -0.5459    1.8868   -0.8726 H         1 <0>         0.0659
     21 H4         -0.5289    1.8773    0.9072 H         1 <0>         0.0613
     22 H5         -1.7501   -1.0251   -2.0185 H         1 <0>         0.1275
     23 H6         -4.0619   -1.8010   -1.5759 H         1 <0>         0.1274
     24 H7         -4.8985   -1.6616    0.8663 H         1 <0>         0.1789
     25 H8         -0.4859   -0.9122    2.8587 H         1 <0>         0.0456
     26 H9          1.0567   -0.1013    3.2208 H         1 <0>         0.0596
     27 H10        -0.2829    0.8180    2.4937 H         1 <0>         0.0613
     28 H11         3.1965    0.3963    1.0374 H         1 <0>         0.1310
     29 H12         5.2141   -0.9895    0.7837 H         1 <0>         0.1267
     30 H13         2.7930   -4.5137    0.7677 H         1 <0>         0.1289
     31 H14         6.1514   -3.2072    0.5693 H         1 <0>         0.4008
     32 H15         5.2001   -4.5920    0.5632 H         1 <0>         0.4001
@<TRIPOS>BOND
     1    1    2 1
     2    1   19 1
     3    1   20 1
     4    1   21 1
     5    2    3 1
     6    2    4 1
     7    2    9 1
     8    4    8 1
     9    4    5 2
    10    5    6 1
    11    5   22 1
    12    6    7 2
    13    6   23 1
    14    7    8 1
    15    7   24 1
    16    9   10 1
    17    9   11 1
    18   10   25 1
    19   10   26 1
    20   10   27 1
    21   11   16 ar
    22   11   12 ar
    23   12   13 ar
    24   12   28 1
    25   13   14 ar
    26   13   29 1
    27   14   15 ar
    28   14   18 1
    29   15   16 ar
    30   15   30 1
    31   16   17 1
    32   18   31 1
    33   18   32 1
