@<TRIPOS>MOLECULE
ZINC36635462
   40    42     0     0     0
SMALL
USER_CHARGES

@<TRIPOS>ATOM
      1 C1         -0.0171    1.5028    0.0121 C.3       1 <0>        -0.1200
      2 C2          0.0030   -0.0041    0.0033 C.ar      1 <0>        -0.0725
      3 C3         -1.1309   -0.7072   -0.3605 C.ar      1 <0>        -0.1053
      4 C4         -1.1155   -2.0881   -0.3695 C.ar      1 <0>        -0.1001
      5 C5          0.0401   -2.7705   -0.0132 C.ar      1 <0>         0.1016
      6 C6          1.1767   -2.0620    0.3510 C.ar      1 <0>        -0.0953
      7 C7          1.1567   -0.6807    0.3535 C.ar      1 <0>        -0.0753
      8 C8          2.3920    0.0894    0.7437 C.3       1 <0>        -0.1176
      9 N1          0.0586   -4.1723   -0.0209 N.am      1 <0>        -0.5262
     10 C9          0.1666   -4.9016    1.0966 C.2       1 <0>         0.5268
     11 O1          0.2586   -4.4555    2.2200 O.2       1 <0>        -0.4596
     12 C10         0.1551   -6.3709    0.7352 C.3       1 <0>        -0.1610
     13 C11         0.0203   -6.3642   -0.8012 C.3       1 <0>         0.1255
     14 H1         -0.8998   -6.8619   -1.1077 H         1 <0>         0.1403
     15 C12        -0.0359   -4.8919   -1.1459 C.2       1 <0>         0.5064
     16 O2         -0.1462   -4.4362   -2.2638 O.2       1 <0>        -0.4466
     17 N2          1.1824   -7.0034   -1.4235 N.pl3     1 <0>        -0.7203
     18 C13         1.0686   -7.5754   -2.6935 C.ar      1 <0>         0.2320
     19 C14        -0.1441   -7.5336   -3.3695 C.ar      1 <0>        -0.1682
     20 C15        -0.2541   -8.0996   -4.6246 C.ar      1 <0>        -0.0530
     21 C16         0.8413   -8.7080   -5.2095 C.ar      1 <0>        -0.1489
     22 C17         2.0515   -8.7525   -4.5397 C.ar      1 <0>         0.0143
     23 C18         2.1699   -8.1821   -3.2851 C.ar      1 <0>        -0.1032
     24 Cl1         3.6898   -8.2308   -2.4478 Cl        1 <0>        -0.0498
     25 Cl2         3.4238   -9.5178   -5.2777 Cl        1 <0>        -0.0452
     26 H2          0.2818    1.8758   -0.9675 H         1 <0>         0.0753
     27 H3         -1.0239    1.8514    0.2420 H         1 <0>         0.0703
     28 H4          0.6764    1.8710    0.7681 H         1 <0>         0.0723
     29 H5         -2.0295   -0.1759   -0.6375 H         1 <0>         0.1330
     30 H6         -2.0016   -2.6367   -0.6530 H         1 <0>         0.1260
     31 H7          2.0769   -2.5901    0.6290 H         1 <0>         0.1249
     32 H8          2.3859    0.2649    1.8195 H         1 <0>         0.0753
     33 H9          3.2784   -0.4849    0.4743 H         1 <0>         0.0680
     34 H10         2.4050    1.0450    0.2197 H         1 <0>         0.0737
     35 H11         1.0880   -6.8474    1.0364 H         1 <0>         0.1319
     36 H12        -0.6979   -6.8719    1.1929 H         1 <0>         0.1400
     37 H13         2.0308   -7.0297   -0.9540 H         1 <0>         0.4114
     38 H14        -1.0006   -7.0592   -2.9138 H         1 <0>         0.1362
     39 H15        -1.1972   -8.0673   -5.1498 H         1 <0>         0.1412
     40 H16         0.7521   -9.1496   -6.1910 H         1 <0>         0.1418
@<TRIPOS>BOND
     1    1    2 1
     2    1   26 1
     3    1   27 1
     4    1   28 1
     5    2    7 ar
     6    2    3 ar
     7    3    4 ar
     8    3   29 1
     9    4    5 ar
    10    4   30 1
    11    5    6 ar
    12    5    9 1
    13    6    7 ar
    14    6   31 1
    15    7    8 1
    16    8   32 1
    17    8   33 1
    18    8   34 1
    19    9   15 am
    20    9   10 am
    21   10   11 2
    22   10   12 1
    23   12   13 1
    24   12   35 1
    25   12   36 1
    26   13   14 1
    27   13   15 1
    28   13   17 1
    29   15   16 2
    30   17   18 1
    31   17   37 1
    32   18   23 ar
    33   18   19 ar
    34   19   20 ar
    35   19   38 1
    36   20   21 ar
    37   20   39 1
    38   21   22 ar
    39   21   40 1
    40   22   23 ar
    41   22   25 1
    42   23   24 1
