@<TRIPOS>MOLECULE
ZINC30985115
   63    66     0     0     0
SMALL
USER_CHARGES
1-[[3-(3-chlorophenyl)-1,2,4-oxadiazol-5-yl]methyl]-N-[2-(p-tolylmethylsulfanyl)ethyl]piperidine-4-carboxamide
@<TRIPOS>ATOM
      1 C1         -1.9791    9.9320    3.3259 C.3       1 <0>        -0.1228
      2 C2         -1.8882    8.4337    3.1925 C.ar      1 <0>        -0.0723
      3 C3         -2.8884    7.7357    2.5419 C.ar      1 <0>        -0.1206
      4 C4         -2.8049    6.3613    2.4196 C.ar      1 <0>        -0.0941
      5 C5         -1.7209    5.6850    2.9472 C.ar      1 <0>        -0.0906
      6 C6         -0.7230    6.3824    3.6020 C.ar      1 <0>        -0.0943
      7 C7         -0.8043    7.7573    3.7205 C.ar      1 <0>        -0.1215
      8 C8         -1.6299    4.1866    2.8138 C.3       1 <0>        -0.0420
      9 S1         -0.7585    3.7680    1.2789 S.3       1 <0>        -0.2241
     10 C9         -0.7339    1.9542    1.2689 C.3       1 <0>        -0.1150
     11 C10        -0.0178    1.4608    0.0101 C.3       1 <0>         0.1371
     12 N1          0.0021   -0.0041    0.0020 N.am      1 <0>        -0.7334
     13 C11         0.5851   -0.6645   -1.0180 C.2       1 <0>         0.5157
     14 O1          1.0933   -0.0461   -1.9292 O.2       1 <0>        -0.5262
     15 C12         0.6055   -2.1713   -1.0263 C.3       1 <0>        -0.1212
     16 C13         1.3527   -2.6798    0.2097 C.3       1 <0>        -0.1375
     17 C14         1.4231   -4.2078    0.1646 C.3       1 <0>        -0.0077
     18 N2          2.1178   -4.6312   -1.0580 N.4       1 <0>        -0.4034
     19 C15         1.3933   -4.1949   -2.2585 C.3       1 <0>        -0.0014
     20 C16         1.3220   -2.6665   -2.2857 C.3       1 <0>        -0.1289
     21 C17         2.3264   -6.0852   -1.0683 C.3       1 <0>         0.1071
     22 C18         3.2753   -6.4645    0.0393 C.2       1 <0>         0.1032
     23 N3          2.9501   -6.7818    1.2677 N.2       1 <0>        -0.4265
     24 C19         4.1181   -7.0450    1.8961 C.2       1 <0>         0.2332
     25 N4          5.0745   -6.8737    1.0210 N.2       1 <0>        -0.3379
     26 O2          4.6066   -6.5458   -0.0489 O.3       1 <0>         0.1178
     27 C20         4.2836   -7.4526    3.3137 C.ar      1 <0>        -0.0354
     28 C21         5.5562   -7.6919    3.8283 C.ar      1 <0>        -0.0732
     29 C22         5.7051   -8.0707    5.1470 C.ar      1 <0>        -0.1023
     30 C23         4.5940   -8.2126    5.9584 C.ar      1 <0>        -0.0769
     31 C24         3.3272   -7.9763    5.4530 C.ar      1 <0>        -0.0398
     32 C25         3.1677   -7.5915    4.1357 C.ar      1 <0>        -0.0648
     33 Cl1         1.9376   -8.1560    6.4779 Cl        1 <0>        -0.0471
     34 H1         -2.9040   10.2872    2.8480 H         1 <0>         0.0681
     35 H2         -1.1111   10.3971    2.8357 H         1 <0>         0.0734
     36 H3         -1.9886   10.2053    4.3914 H         1 <0>         0.0734
     37 H4         -3.7351    8.2641    2.1294 H         1 <0>         0.1262
     38 H5         -3.5865    5.8159    1.9116 H         1 <0>         0.1240
     39 H6          0.1217    5.8536    4.0180 H         1 <0>         0.1235
     40 H7         -0.0228    8.3027    4.2285 H         1 <0>         0.1259
     41 H8         -1.0789    3.7749    3.6722 H         1 <0>         0.0917
     42 H9         -2.6429    3.7585    2.7888 H         1 <0>         0.0922
     43 H10        -0.2019    1.5898    2.1601 H         1 <0>         0.0881
     44 H11        -1.7659    1.5734    1.2768 H         1 <0>         0.0893
     45 H12        -0.5499    1.8252   -0.8810 H         1 <0>         0.0819
     46 H13         1.0142    1.8416    0.0022 H         1 <0>         0.0811
     47 H14        -0.4588   -0.5650    0.8284 H         1 <0>         0.4214
     48 H15        -0.4332   -2.5333   -1.0154 H         1 <0>         0.1187
     49 H16         2.3711   -2.2642    0.2192 H         1 <0>         0.0962
     50 H17         0.8187   -2.3623    1.1174 H         1 <0>         0.1186
     51 H18         1.9722   -4.5756    1.0439 H         1 <0>         0.1328
     52 H19         0.4041   -4.6221    0.1690 H         1 <0>         0.1390
     53 H20         1.9204   -4.5529   -3.1552 H         1 <0>         0.1443
     54 H21         0.3743   -4.6088   -2.2425 H         1 <0>         0.1360
     55 H22         0.7657   -2.3394   -3.1766 H         1 <0>         0.1256
     56 H23         2.3399   -2.2507   -2.3159 H         1 <0>         0.1009
     57 H24         1.3634   -6.5948   -0.9167 H         1 <0>         0.1728
     58 H25         2.7529   -6.3876   -2.0361 H         1 <0>         0.1733
     59 H26         6.4248   -7.5809    3.1962 H         1 <0>         0.1396
     60 H27         6.6913   -8.2564    5.5463 H         1 <0>         0.1485
     61 H28         4.7152   -8.5086    6.9900 H         1 <0>         0.1470
     62 H29         2.1795   -7.4028    3.7429 H         1 <0>         0.1452
     63 H30         3.1052   -4.1465   -1.0676 H         1 <0>         0.4481
@<TRIPOS>BOND
     1    1    2 1
     2    1   34 1
     3    1   35 1
     4    1   36 1
     5    2    7 ar
     6    2    3 ar
     7    3    4 ar
     8    3   37 1
     9    4    5 ar
    10    4   38 1
    11    5    6 ar
    12    5    8 1
    13    6    7 ar
    14    6   39 1
    15    7   40 1
    16    8    9 1
    17    8   41 1
    18    8   42 1
    19    9   10 1
    20   10   11 1
    21   10   43 1
    22   10   44 1
    23   11   12 1
    24   11   45 1
    25   11   46 1
    26   12   13 am
    27   12   47 1
    28   13   14 2
    29   13   15 1
    30   15   20 1
    31   15   16 1
    32   15   48 1
    33   16   17 1
    34   16   49 1
    35   16   50 1
    36   17   18 1
    37   17   51 1
    38   17   52 1
    39   18   19 1
    40   18   21 1
    41   18   63 1
    42   19   20 1
    43   19   53 1
    44   19   54 1
    45   20   55 1
    46   20   56 1
    47   21   22 1
    48   21   57 1
    49   21   58 1
    50   22   26 1
    51   22   23 2
    52   23   24 1
    53   24   25 2
    54   24   27 1
    55   25   26 1
    56   27   32 ar
    57   27   28 ar
    58   28   29 ar
    59   28   59 1
    60   29   30 ar
    61   29   60 1
    62   30   31 ar
    63   30   61 1
    64   31   32 ar
    65   31   33 1
    66   32   62 1
