@<TRIPOS>MOLECULE
ZINC59892064
   69    70     0     0     0
SMALL
USER_CHARGES

@<TRIPOS>ATOM
      1 C1        -13.1946   -8.2046    0.2331 C.3       1 <0>        -0.1544
      2 C2        -11.8783   -7.8571    0.9312 C.3       1 <0>        -0.1265
      3 C3        -10.7577   -7.7703   -0.1070 C.3       1 <0>        -0.1201
      4 C4         -9.4414   -7.4228    0.5911 C.3       1 <0>        -0.1214
      5 C5         -8.3209   -7.3361   -0.4470 C.3       1 <0>        -0.1262
      6 C6         -7.0046   -6.9885    0.2511 C.3       1 <0>         0.1126
      7 N1         -5.9317   -6.9055   -0.7430 N.pl3     1 <0>        -1.1172
      8 S1         -4.4907   -6.1912   -0.3484 S.o2      1 <0>         2.6966
      9 O1         -3.6604   -6.2899   -1.4973 O.2       1 <0>        -0.9588
     10 O2         -4.8075   -4.9456    0.2579 O.2       1 <0>        -0.9546
     11 C7         -3.7422   -7.1833    0.9006 C.ar      1 <0>        -0.6937
     12 C8         -4.0055   -6.9286    2.2340 C.ar      1 <0>         0.0012
     13 C9         -3.4204   -7.7045    3.2154 C.ar      1 <0>        -0.1425
     14 C10        -2.5672   -8.7416    2.8619 C.ar      1 <0>         0.2053
     15 C11        -2.3051   -8.9951    1.5219 C.ar      1 <0>        -0.1653
     16 C12        -2.8972   -8.2186    0.5451 C.ar      1 <0>         0.0036
     17 N2         -1.9724   -9.5292    3.8538 N.am      1 <0>        -0.6708
     18 C13        -2.6365   -9.7871    4.9979 C.2       1 <0>         0.5391
     19 O3         -3.7844   -9.4180    5.1292 O.2       1 <0>        -0.4908
     20 C14        -1.9528  -10.5340    6.1140 C.3       1 <0>        -0.1655
     21 S2         -3.0995  -10.7221    7.5070 S.3       1 <0>         0.1180
     22 C15        -2.1642  -11.6024    8.7132 C.2       1 <0>         0.2154
     23 N3         -2.6066  -11.9760    9.9187 N.2       1 <0>        -0.5188
     24 C16        -1.6520  -12.6141   10.5625 C.2       1 <0>         0.5643
     25 N4         -0.5662  -12.6575    9.7617 N.pl3     1 <0>        -0.5056
     26 N5         -0.9229  -12.0024    8.5721 N.2       1 <0>        -0.3255
     27 N6         -1.7450  -13.1459   11.8362 N.pl3     1 <0>        -0.5559
     28 N7         -2.9391  -13.0277   12.5593 N.2       1 <0>        -0.2081
     29 C17        -3.0251  -13.5198   13.7379 C.2       1 <0>         0.0990
     30 C18        -1.8419  -14.2264   14.3476 C.3       1 <0>        -0.1613
     31 C19        -4.3096  -13.3926   14.5157 C.3       1 <0>        -0.0577
     32 C20        -4.9085  -14.7822   14.7421 C.3       1 <0>        -0.0899
     33 C21        -6.1442  -14.6654   15.6367 C.3       1 <0>        -0.1488
     34 C22        -5.3087  -15.3905   13.3965 C.3       1 <0>        -0.1485
     35 H1        -13.9929   -8.2664    0.9727 H         1 <0>         0.0537
     36 H2        -13.4343   -7.4310   -0.4964 H         1 <0>         0.0534
     37 H3        -13.0944   -9.1640   -0.2744 H         1 <0>         0.0531
     38 H4        -11.9784   -6.8976    1.4387 H         1 <0>         0.0617
     39 H5        -11.6386   -8.6307    1.6607 H         1 <0>         0.0614
     40 H6        -10.6576   -8.7298   -0.6145 H         1 <0>         0.0617
     41 H7        -10.9974   -6.9967   -0.8365 H         1 <0>         0.0624
     42 H8         -9.5416   -6.4633    1.0986 H         1 <0>         0.0674
     43 H9         -9.2017   -8.1964    1.3206 H         1 <0>         0.0663
     44 H10        -8.2208   -8.2955   -0.9545 H         1 <0>         0.0705
     45 H11        -8.5606   -6.5624   -1.1765 H         1 <0>         0.0727
     46 H12        -7.1047   -6.0291    0.7586 H         1 <0>         0.0819
     47 H13        -6.7649   -7.7621    0.9806 H         1 <0>         0.0670
     48 H14        -6.0653   -7.2689   -1.6324 H         1 <0>         0.4193
     49 H15        -4.6692   -6.1220    2.5083 H         1 <0>         0.1455
     50 H16        -3.6259   -7.5047    4.2567 H         1 <0>         0.1468
     51 H17        -1.6417   -9.8006    1.2438 H         1 <0>         0.1382
     52 H18        -2.6971   -8.4178   -0.4973 H         1 <0>         0.1458
     53 H19        -1.0822   -9.8896    3.7180 H         1 <0>         0.4189
     54 H20        -1.6478  -11.5184    5.7590 H         1 <0>         0.1275
     55 H21        -1.0743   -9.9768    6.4393 H         1 <0>         0.1289
     56 H22        -0.9834  -13.6008   12.2287 H         1 <0>         0.3985
     57 H23        -1.2290  -13.5067   14.8902 H         1 <0>         0.0861
     58 H24        -2.1930  -14.9960   15.0351 H         1 <0>         0.0905
     59 H25        -1.2480  -14.6877   13.5586 H         1 <0>         0.0624
     60 H26        -4.1066  -12.9232   15.4783 H         1 <0>         0.0910
     61 H27        -5.0151  -12.7800   13.9544 H         1 <0>         0.0894
     62 H28        -4.1697  -15.4220   15.2248 H         1 <0>         0.0733
     63 H29        -6.8830  -14.0256   15.1540 H         1 <0>         0.0589
     64 H30        -6.5709  -15.6554   15.7980 H         1 <0>         0.0583
     65 H31        -5.8592  -14.2320   16.5953 H         1 <0>         0.0573
     66 H32        -6.0475  -14.7507   12.9138 H         1 <0>         0.0599
     67 H33        -4.4283  -15.4737   12.7592 H         1 <0>         0.0498
     68 H34        -5.7353  -16.3805   13.5578 H         1 <0>         0.0552
     69 H35         0.2905  -13.0639    9.9665 H         1 <0>         0.4383
@<TRIPOS>BOND
     1    1    2 1
     2    1   35 1
     3    1   36 1
     4    1   37 1
     5    2    3 1
     6    2   38 1
     7    2   39 1
     8    3    4 1
     9    3   40 1
    10    3   41 1
    11    4    5 1
    12    4   42 1
    13    4   43 1
    14    5    6 1
    15    5   44 1
    16    5   45 1
    17    6    7 1
    18    6   46 1
    19    6   47 1
    20    7    8 1
    21    7   48 1
    22    8    9 2
    23    8   10 2
    24    8   11 1
    25   11   16 ar
    26   11   12 ar
    27   12   13 ar
    28   12   49 1
    29   13   14 ar
    30   13   50 1
    31   14   15 ar
    32   14   17 1
    33   15   16 ar
    34   15   51 1
    35   16   52 1
    36   17   18 am
    37   17   53 1
    38   18   19 2
    39   18   20 1
    40   20   21 1
    41   20   54 1
    42   20   55 1
    43   21   22 1
    44   22   26 2
    45   22   23 1
    46   23   24 2
    47   24   25 1
    48   24   27 1
    49   25   26 1
    50   25   69 1
    51   27   28 1
    52   27   56 1
    53   28   29 2
    54   29   30 1
    55   29   31 1
    56   30   57 1
    57   30   58 1
    58   30   59 1
    59   31   32 1
    60   31   60 1
    61   31   61 1
    62   32   33 1
    63   32   34 1
    64   32   62 1
    65   33   63 1
    66   33   64 1
    67   33   65 1
    68   34   66 1
    69   34   67 1
    70   34   68 1
