@<TRIPOS>MOLECULE
ZINC22076345
   49    51     0     0     0
SMALL
USER_CHARGES
1-[3-chloro-4-[(2,4-dichlorophenyl)methoxy]-5-ethoxy-phenyl]-N-(2-furylmethyl)methanamine
@<TRIPOS>ATOM
      1 C1          6.0090   -0.7347   -0.0585 C.3       1 <0>        -0.1602
      2 C2          4.7794    0.1756   -0.0424 C.3       1 <0>         0.0500
      3 O1          3.5950   -0.6239   -0.0353 O.3       1 <0>        -0.2906
      4 C3          2.4054    0.0350   -0.0208 C.ar      1 <0>         0.1394
      5 C4          2.3792    1.4206   -0.0131 C.ar      1 <0>        -0.1772
      6 C5          1.1695    2.0894    0.0021 C.ar      1 <0>        -0.1132
      7 C6         -0.0167    1.3791    0.0096 C.ar      1 <0>        -0.1129
      8 C7          0.0021   -0.0041    0.0020 C.ar      1 <0>        -0.0207
      9 C8          1.2124   -0.6805   -0.0132 C.ar      1 <0>         0.1064
     10 O2          1.2332   -2.0405   -0.0203 O.3       1 <0>        -0.3087
     11 C9          1.2307   -2.6828   -1.2968 C.3       1 <0>         0.1098
     12 C10         1.2554   -4.1776   -1.1071 C.ar      1 <0>        -0.0805
     13 C11         1.2760   -4.7122    0.1676 C.ar      1 <0>        -0.0706
     14 C12         1.2982   -6.0829    0.3423 C.ar      1 <0>        -0.1029
     15 C13         1.2999   -6.9212   -0.7587 C.ar      1 <0>        -0.0208
     16 C14         1.2794   -6.3869   -2.0343 C.ar      1 <0>        -0.0983
     17 C15         1.2518   -5.0146   -2.2085 C.ar      1 <0>        -0.0194
     18 Cl1         1.2193   -4.3432   -3.8091 Cl        1 <0>        -0.0513
     19 Cl2         1.3285   -8.6430   -0.5390 Cl        1 <0>        -0.0469
     20 Cl3        -1.4892   -0.8927    0.0121 Cl        1 <0>        -0.0165
     21 C16         1.1435    3.5961    0.0100 C.3       1 <0>         0.0518
     22 N1          1.1480    4.0787    1.3975 N.4       1 <0>        -0.5418
     23 C17         1.1231    5.5467    1.4444 C.3       1 <0>         0.0958
     24 C18         1.1285    6.0036    2.8804 C.2       1 <0>        -0.1148
     25 C19         2.2223    6.2610    3.6199 C.2       1 <0>        -0.1379
     26 C20         1.7681    6.6585    4.8984 C.2       1 <0>        -0.2213
     27 C21         0.4240    6.6202    4.8638 C.2       1 <0>         0.0181
     28 O3          0.0420    6.2285    3.6372 O.3       1 <0>        -0.1687
     29 H1          6.9207   -0.1193   -0.0640 H         1 <0>         0.0870
     30 H2          5.9867   -1.3651   -0.9597 H         1 <0>         0.0725
     31 H3          6.0036   -1.3741    0.8365 H         1 <0>         0.0728
     32 H4          4.8017    0.8060    0.8588 H         1 <0>         0.0661
     33 H5          4.7848    0.8151   -0.9374 H         1 <0>         0.0681
     34 H6          3.3041    1.9781   -0.0194 H         1 <0>         0.1478
     35 H7         -0.9598    1.9053    0.0170 H         1 <0>         0.1498
     36 H8          0.3227   -2.3982   -1.8487 H         1 <0>         0.0802
     37 H9          2.1187   -2.3707   -1.8661 H         1 <0>         0.0817
     38 H10         1.2743   -4.0584    1.0272 H         1 <0>         0.1501
     39 H11         1.3139   -6.5000    1.3384 H         1 <0>         0.1446
     40 H12         1.2804   -7.0407   -2.8939 H         1 <0>         0.1500
     41 H13         2.0303    3.9809   -0.5149 H         1 <0>         0.1419
     42 H14         0.2344    3.9498   -0.4983 H         1 <0>         0.1438
     43 H15         0.2612    3.6940    1.9224 H         1 <0>         0.4543
     44 H16         2.0098    5.9451    0.9295 H         1 <0>         0.1550
     45 H17         0.2139    5.9141    0.9461 H         1 <0>         0.1452
     46 H18         3.2502    6.1791    3.2988 H         1 <0>         0.1607
     47 H19         2.3825    6.9387    5.7413 H         1 <0>         0.1632
     48 H20        -0.2362    6.8676    5.6819 H         1 <0>         0.2185
     49 H21         2.0571    3.7250    1.9058 H         1 <0>         0.4506
@<TRIPOS>BOND
     1    1    2 1
     2    1   29 1
     3    1   30 1
     4    1   31 1
     5    2    3 1
     6    2   32 1
     7    2   33 1
     8    3    4 1
     9    4    9 ar
    10    4    5 ar
    11    5    6 ar
    12    5   34 1
    13    6    7 ar
    14    6   21 1
    15    7    8 ar
    16    7   35 1
    17    8    9 ar
    18    8   20 1
    19    9   10 1
    20   10   11 1
    21   11   12 1
    22   11   36 1
    23   11   37 1
    24   12   17 ar
    25   12   13 ar
    26   13   14 ar
    27   13   38 1
    28   14   15 ar
    29   14   39 1
    30   15   16 ar
    31   15   19 1
    32   16   17 ar
    33   16   40 1
    34   17   18 1
    35   21   22 1
    36   21   41 1
    37   21   42 1
    38   22   23 1
    39   22   43 1
    40   22   49 1
    41   23   24 1
    42   23   44 1
    43   23   45 1
    44   24   28 1
    45   24   25 2
    46   25   26 1
    47   25   46 1
    48   26   27 2
    49   26   47 1
    50   27   28 1
    51   27   48 1
