@<TRIPOS>MOLECULE
ZINC06904693
   53    57     0     0     0
SMALL
USER_CHARGES
N-(1-adamantylmethyl)-2-norbornan-2-yl-acetamide
@<TRIPOS>ATOM
      1 C1          5.0915    9.4384   -2.4376 C.3       1 <0>        -0.1215
      2 C2          4.3848    9.8241   -1.1180 C.3       1 <0>        -0.1292
      3 C3          5.3945    9.4250    0.0012 C.3       1 <0>        -0.1015
      4 H1          5.2410    9.8967    0.9717 H         1 <0>         0.0977
      5 C4          6.7575    9.7153   -0.7209 C.3       1 <0>        -0.1235
      6 C5          6.4616    8.8427   -1.9915 C.3       1 <0>        -0.1087
      7 H2          7.2417    8.8198   -2.7524 H         1 <0>         0.0960
      8 C6          6.0970    7.4801   -1.3268 C.3       1 <0>        -0.1044
      9 C7          5.3903    7.8658   -0.0072 C.3       1 <0>        -0.0716
     10 H3          5.9434    7.4797    0.8491 H         1 <0>         0.0803
     11 C8          3.9549    7.3362    0.0037 C.3       1 <0>        -0.1377
     12 C9          3.9737    5.8372    0.1573 C.2       1 <0>         0.5094
     13 O1          5.0310    5.2502    0.2491 O.2       1 <0>        -0.5353
     14 N1          2.8155    5.1488    0.1927 N.am      1 <0>        -0.7317
     15 C10         2.8338    3.6916    0.3421 C.3       1 <0>         0.1295
     16 C11         1.3984    3.1620    0.3530 C.3       1 <0>        -0.0644
     17 C12         1.4174    1.6401    0.5089 C.3       1 <0>        -0.1004
     18 C13        -0.0179    1.1105    0.5198 C.3       1 <0>        -0.0850
     19 C14        -0.7078    1.4798   -0.7950 C.3       1 <0>        -0.1092
     20 C15        -0.7268    3.0017   -0.9510 C.3       1 <0>        -0.0863
     21 C16         0.7086    3.5313   -0.9618 C.3       1 <0>        -0.1014
     22 C17        -1.4915    3.6247    0.2187 C.3       1 <0>        -0.1089
     23 C18        -0.8016    3.2554    1.5335 C.3       1 <0>        -0.0863
     24 C19        -0.7826    1.7335    1.6895 C.3       1 <0>        -0.1092
     25 C20         0.6338    3.7850    1.5226 C.3       1 <0>        -0.1014
     26 H4          4.5092    8.6906   -2.9760 H         1 <0>         0.0614
     27 H5          5.2450   10.3211   -3.0585 H         1 <0>         0.0617
     28 H6          3.4550    9.2659   -1.0076 H         1 <0>         0.0690
     29 H7          4.1892   10.8960   -1.0888 H         1 <0>         0.0622
     30 H8          6.8727   10.7707   -0.9676 H         1 <0>         0.0689
     31 H9          7.6087    9.3374   -0.1546 H         1 <0>         0.0694
     32 H10         6.9993    6.9045   -1.1204 H         1 <0>         0.0655
     33 H11         5.4218    6.9132   -1.9678 H         1 <0>         0.0597
     34 H12         3.4635    7.5993   -0.9330 H         1 <0>         0.0977
     35 H13         3.4102    7.7800    0.8370 H         1 <0>         0.0921
     36 H14         1.9699    5.6183    0.1193 H         1 <0>         0.3986
     37 H15         3.3252    3.4285    1.2788 H         1 <0>         0.0670
     38 H16         3.3785    3.2477   -0.4912 H         1 <0>         0.0669
     39 H17         1.9089    1.3770    1.4456 H         1 <0>         0.0656
     40 H18         1.9622    1.1962   -0.3244 H         1 <0>         0.0656
     41 H19        -0.0044    0.0263    0.6309 H         1 <0>         0.0715
     42 H20        -0.1630    1.0360   -1.6283 H         1 <0>         0.0620
     43 H21        -1.7304    1.1025   -0.7872 H         1 <0>         0.0624
     44 H22        -1.2183    3.2648   -1.8876 H         1 <0>         0.0701
     45 H23         0.6950    4.6155   -1.0729 H         1 <0>         0.0602
     46 H24         1.2533    3.0875   -1.7951 H         1 <0>         0.0645
     47 H25        -1.5050    4.7090    0.1076 H         1 <0>         0.0608
     48 H26        -2.5140    3.2474    0.2264 H         1 <0>         0.0625
     49 H27        -1.3464    3.6993    2.3668 H         1 <0>         0.0702
     50 H28        -1.8052    1.3562    1.6972 H         1 <0>         0.0624
     51 H29        -0.2911    1.4704    2.6261 H         1 <0>         0.0620
     52 H30         1.1252    3.5219    2.4593 H         1 <0>         0.0646
     53 H31         0.6202    4.8692    1.4115 H         1 <0>         0.0603
@<TRIPOS>BOND
     1    1    6 1
     2    1    2 1
     3    1   26 1
     4    1   27 1
     5    2    3 1
     6    2   28 1
     7    2   29 1
     8    3    4 1
     9    3    9 1
    10    3    5 1
    11    5    6 1
    12    5   30 1
    13    5   31 1
    14    6    7 1
    15    6    8 1
    16    8    9 1
    17    8   32 1
    18    8   33 1
    19    9   10 1
    20    9   11 1
    21   11   12 1
    22   11   34 1
    23   11   35 1
    24   12   13 2
    25   12   14 am
    26   14   15 1
    27   14   36 1
    28   15   16 1
    29   15   37 1
    30   15   38 1
    31   16   21 1
    32   16   25 1
    33   16   17 1
    34   17   18 1
    35   17   39 1
    36   17   40 1
    37   18   24 1
    38   18   19 1
    39   18   41 1
    40   19   20 1
    41   19   42 1
    42   19   43 1
    43   20   21 1
    44   20   22 1
    45   20   44 1
    46   21   45 1
    47   21   46 1
    48   22   23 1
    49   22   47 1
    50   22   48 1
    51   23   24 1
    52   23   25 1
    53   23   49 1
    54   24   50 1
    55   24   51 1
    56   25   52 1
    57   25   53 1
