@<TRIPOS>MOLECULE
ZINC30825884
   37    39     0     0     0
SMALL
USER_CHARGES
5-bromo-N-[4-(1-cyanocyclopentyl)phenyl]furan-2-carboxamide
@<TRIPOS>ATOM
      1 C1          1.4164    1.5217   -2.3138 C.ar      1 <0>        -0.0873
      2 C2          2.2116    1.5928   -3.4407 C.ar      1 <0>        -0.1188
      3 C3          1.6422    1.8864   -4.6731 C.ar      1 <0>         0.1541
      4 C4          0.2734    2.1021   -4.7686 C.ar      1 <0>        -0.1375
      5 C5         -0.5169    2.0240   -3.6387 C.ar      1 <0>        -0.0859
      6 C6          0.0532    1.7314   -2.4132 C.ar      1 <0>        -0.0914
      7 C7         -0.8123    1.6469   -1.1824 C.3       1 <0>         0.0722
      8 C8          0.0462    1.3091    0.0618 C.3       1 <0>        -0.1193
      9 C9         -0.8138    1.8472    1.2322 C.3       1 <0>        -0.1265
     10 C10        -1.4305    3.1505    0.6779 C.3       1 <0>        -0.1221
     11 C11        -1.4269    3.0236   -0.8556 C.3       1 <0>        -0.1065
     12 C12        -1.8709    0.6408   -1.3665 C.1       1 <0>         0.2200
     13 N1         -2.6878   -0.1357   -1.5086 N.1       1 <0>        -0.4253
     14 N2          2.4453    1.9652   -5.8151 N.am      1 <0>        -0.6758
     15 C13         3.5275    1.1708   -5.9340 C.2       1 <0>         0.6081
     16 O1          3.7522    0.3187   -5.0943 O.2       1 <0>        -0.4943
     17 C14         4.4334    1.3327   -7.0741 C.2       1 <0>        -0.0600
     18 C15         5.5631    0.6020   -7.3117 C.2       1 <0>        -0.1083
     19 C16         6.1155    1.0894   -8.5054 C.2       1 <0>        -0.1636
     20 C17         5.3135    2.0906   -8.9358 C.2       1 <0>         0.0005
     21 O2          4.3013    2.2337   -8.0702 O.3       1 <0>        -0.1491
     22 Br1         5.5778    3.1180  -10.5013 Br        1 <0>         0.0697
     23 H1          1.8591    1.2977   -1.3545 H         1 <0>         0.1385
     24 H2          3.2755    1.4246   -3.3631 H         1 <0>         0.1381
     25 H3         -0.1725    2.3303   -5.7254 H         1 <0>         0.1303
     26 H4         -1.5813    2.1912   -3.7123 H         1 <0>         0.1268
     27 H5          0.2017    0.2215    0.1157 H         1 <0>         0.0776
     28 H6          1.0197    1.8153   -0.0160 H         1 <0>         0.0965
     29 H7         -1.5821    1.1049    1.4942 H         1 <0>         0.0670
     30 H8         -0.1704    2.0326    2.1050 H         1 <0>         0.0772
     31 H9         -2.4563    3.2618    1.0591 H         1 <0>         0.0694
     32 H10        -0.8241    4.0095    1.0010 H         1 <0>         0.0749
     33 H11        -0.8161    3.8158   -1.3133 H         1 <0>         0.0889
     34 H12        -2.4504    3.0725   -1.2556 H         1 <0>         0.0737
     35 H13         2.1938    2.6756   -6.6164 H         1 <0>         0.4432
     36 H14         5.9539   -0.1977   -6.7000 H         1 <0>         0.1730
     37 H15         7.0145    0.7351   -8.9879 H         1 <0>         0.1718
@<TRIPOS>BOND
     1    1    6 ar
     2    1    2 ar
     3    1   23 1
     4    2    3 ar
     5    2   24 1
     6    3    4 ar
     7    3   14 1
     8    4    5 ar
     9    4   25 1
    10    5    6 ar
    11    5   26 1
    12    6    7 1
    13    7   11 1
    14    7    8 1
    15    7   12 1
    16    8    9 1
    17    8   27 1
    18    8   28 1
    19    9   10 1
    20    9   29 1
    21    9   30 1
    22   10   11 1
    23   10   31 1
    24   10   32 1
    25   11   33 1
    26   11   34 1
    27   12   13 3
    28   14   15 am
    29   14   35 1
    30   15   16 2
    31   15   17 1
    32   17   21 1
    33   17   18 2
    34   18   19 1
    35   18   36 1
    36   19   20 2
    37   19   37 1
    38   20   21 1
    39   20   22 1
