@<TRIPOS>MOLECULE
ZINC36899241
   39    41     0     0     0
SMALL
USER_CHARGES

@<TRIPOS>ATOM
      1 C1         -0.1043    1.5226   -0.0934 C.3       1 <0>        -0.1499
      2 C2         -0.0568    0.0020    0.0695 C.3       1 <0>        -0.0830
      3 H1          0.3298   -0.4494   -0.8442 H         1 <0>         0.0735
      4 C3         -1.4667   -0.5259    0.3422 C.3       1 <0>        -0.1220
      5 C4         -1.4192   -2.0465    0.5051 C.3       1 <0>        -0.1167
      6 C5         -0.5046   -2.4055    1.6779 C.3       1 <0>        -0.1356
      7 C6          0.9053   -1.8775    1.4052 C.3       1 <0>         0.1469
      8 H2          1.2920   -2.3289    0.4915 H         1 <0>         0.0887
      9 C7          0.8579   -0.3569    1.2423 C.3       1 <0>        -0.0984
     10 H3          1.8623    0.0192    1.0481 H         1 <0>         0.0736
     11 C8          0.3152    0.2767    2.5249 C.3       1 <0>        -0.1513
     12 N1          1.7811   -2.2212    2.5282 N.pl3     1 <0>        -0.5051
     13 C9          1.4037   -2.8570    3.7001 C.ar      1 <0>         0.0591
     14 C10         0.1992   -3.3437    4.1847 C.ar      1 <0>        -0.1093
     15 C11         0.1499   -3.9418    5.4269 C.ar      1 <0>        -0.0944
     16 C12         1.2989   -4.0595    6.1963 C.ar      1 <0>        -0.0907
     17 C13         2.5038   -3.5811    5.7304 C.ar      1 <0>        -0.0501
     18 C14         2.5699   -2.9737    4.4740 C.ar      1 <0>         0.0866
     19 N2          3.5824   -2.4178    3.7579 N.2       1 <0>        -0.5461
     20 C15         3.1224   -1.9800    2.6124 C.2       1 <0>         0.5532
     21 N3          3.8793   -1.3639    1.6381 N.pl3     1 <0>        -0.8293
     22 Br1         1.2098   -4.8821    7.8967 Br        1 <0>        -0.0483
     23 H4          0.9002    1.8987   -0.2876 H         1 <0>         0.0554
     24 H5         -0.7559    1.7783   -0.9289 H         1 <0>         0.0588
     25 H6         -0.4909    1.9740    0.8203 H         1 <0>         0.0599
     26 H7         -1.8533   -0.0745    1.2559 H         1 <0>         0.0700
     27 H8         -2.1183   -0.2702   -0.4933 H         1 <0>         0.0691
     28 H9         -2.4237   -2.4226    0.6993 H         1 <0>         0.0744
     29 H10        -1.0326   -2.4979   -0.4086 H         1 <0>         0.0667
     30 H11        -0.8912   -1.9540    2.5916 H         1 <0>         0.0858
     31 H12        -0.4707   -3.4887    1.7939 H         1 <0>         0.0782
     32 H13        -0.7223   -0.0253    2.6685 H         1 <0>         0.0648
     33 H14         0.9113   -0.0556    3.3747 H         1 <0>         0.0540
     34 H15         0.3698    1.3624    2.4450 H         1 <0>         0.0624
     35 H16        -0.6986   -3.2545    3.5911 H         1 <0>         0.1409
     36 H17        -0.7890   -4.3205    5.8032 H         1 <0>         0.1372
     37 H18         3.3942   -3.6751    6.3343 H         1 <0>         0.1372
     38 H19         3.4564   -1.0423    0.8266 H         1 <0>         0.4087
     39 H20         4.8345   -1.2522    1.7643 H         1 <0>         0.4248
@<TRIPOS>BOND
     1    1    2 1
     2    1   23 1
     3    1   24 1
     4    1   25 1
     5    2    3 1
     6    2    9 1
     7    2    4 1
     8    4    5 1
     9    4   26 1
    10    4   27 1
    11    5    6 1
    12    5   28 1
    13    5   29 1
    14    6    7 1
    15    6   30 1
    16    6   31 1
    17    7    8 1
    18    7    9 1
    19    7   12 1
    20    9   10 1
    21    9   11 1
    22   11   32 1
    23   11   33 1
    24   11   34 1
    25   12   20 1
    26   12   13 1
    27   13   18 ar
    28   13   14 ar
    29   14   15 ar
    30   14   35 1
    31   15   16 ar
    32   15   36 1
    33   16   17 ar
    34   16   22 1
    35   17   18 ar
    36   17   37 1
    37   18   19 1
    38   19   20 2
    39   20   21 1
    40   21   38 1
    41   21   39 1
