@<TRIPOS>MOLECULE
ZINC52907945
   32    34     0     0     0
SMALL
USER_CHARGES

@<TRIPOS>ATOM
      1 C1          0.0045    1.3954    0.0138 C.ar      1 <0>        -0.1165
      2 C2          1.1953    2.0978    0.0092 C.ar      1 <0>        -0.1118
      3 C3          2.3975    1.4174   -0.0056 C.ar      1 <0>        -0.0962
      4 C4          2.4119    0.0331   -0.0158 C.ar      1 <0>        -0.0972
      5 C5          1.2227   -0.6683   -0.0112 C.ar      1 <0>        -0.1108
      6 C6          0.0182    0.0141    0.0036 C.ar      1 <0>        -0.0966
      7 C7          1.5277   -2.1449   -0.0236 C.3       1 <0>         0.1792
      8 N1          2.9859   -2.2989   -0.0361 N.pl3     1 <0>        -0.6834
      9 C8          3.5566   -0.9482   -0.0315 C.3       1 <0>         0.1698
     10 C9          3.6917   -3.4958   -0.0502 C.ar      1 <0>         0.2453
     11 C10         4.0418   -4.0854   -1.2579 C.ar      1 <0>        -0.1154
     12 C11         4.7425   -5.2745   -1.2705 C.ar      1 <0>        -0.0782
     13 C12         5.1025   -5.8898   -0.0826 C.ar      1 <0>        -0.1077
     14 C13         4.7644   -5.3205    1.1273 C.ar      1 <0>         0.0005
     15 C14         4.0597   -4.1122    1.1565 C.ar      1 <0>        -0.1047
     16 C15         3.7007   -3.4947    2.4435 C.2       1 <0>         0.4115
     17 S1          4.8199   -2.4786    3.2471 S.2       1 <0>        -0.5213
     18 N2          2.4909   -3.7292    2.9893 N.pl3     1 <0>        -0.7527
     19 Cl1         5.2183   -6.0984    2.6115 Cl        1 <0>        -0.0456
     20 H1         -0.9359    1.9263    0.0299 H         1 <0>         0.1279
     21 H2          1.1857    3.1777    0.0168 H         1 <0>         0.1285
     22 H3          3.3277    1.9663   -0.0095 H         1 <0>         0.1256
     23 H4         -0.9122   -0.5344    0.0076 H         1 <0>         0.1229
     24 H5          1.1142   -2.6151    0.8686 H         1 <0>         0.0562
     25 H6          1.1001   -2.6029   -0.9155 H         1 <0>         0.0677
     26 H7          4.1591   -0.7986   -0.9274 H         1 <0>         0.0683
     27 H8          4.1732   -0.8107    0.8568 H         1 <0>         0.0790
     28 H9          3.7650   -3.6129   -2.1888 H         1 <0>         0.1403
     29 H10         5.0117   -5.7285   -2.2127 H         1 <0>         0.1436
     30 H11         5.6505   -6.8203   -0.1041 H         1 <0>         0.1452
     31 H12         1.8852   -4.3618    2.5724 H         1 <0>         0.4030
     32 H13         2.2260   -3.2655    3.7990 H         1 <0>         0.4236
@<TRIPOS>BOND
     1    1    6 ar
     2    1    2 ar
     3    1   20 1
     4    2    3 ar
     5    2   21 1
     6    3    4 ar
     7    3   22 1
     8    4    9 1
     9    4    5 ar
    10    5    6 ar
    11    5    7 1
    12    6   23 1
    13    7    8 1
    14    7   24 1
    15    7   25 1
    16    8    9 1
    17    8   10 1
    18    9   26 1
    19    9   27 1
    20   10   15 ar
    21   10   11 ar
    22   11   12 ar
    23   11   28 1
    24   12   13 ar
    25   12   29 1
    26   13   14 ar
    27   13   30 1
    28   14   15 ar
    29   14   19 1
    30   15   16 1
    31   16   17 2
    32   16   18 1
    33   18   31 1
    34   18   32 1
