@<TRIPOS>MOLECULE
ZINC49861052
   43    44     0     0     0
SMALL
USER_CHARGES

@<TRIPOS>ATOM
      1 C1         -0.0184    1.5028    0.0103 C.3       1 <0>        -0.1163
      2 C2          0.0021   -0.0041    0.0020 C.ar      1 <0>        -0.0869
      3 C3          0.0057   -0.6888   -1.1991 C.ar      1 <0>        -0.1157
      4 C4          0.0245   -2.0707   -1.2067 C.ar      1 <0>        -0.1137
      5 C5          0.0400   -2.7685   -0.0132 C.ar      1 <0>        -0.0817
      6 C6          0.0373   -2.0840    1.1875 C.ar      1 <0>        -0.1160
      7 C7          0.0229   -0.7015    1.1951 C.ar      1 <0>        -0.1091
      8 C8          0.0538   -2.8445    2.4885 C.3       1 <0>         0.1536
      9 H1          0.6544   -3.7469    2.3742 H         1 <0>         0.1125
     10 C9         -1.3764   -3.2290    2.8726 C.3       1 <0>        -0.1590
     11 C10        -1.3495   -4.1066    4.1256 C.3       1 <0>         0.1282
     12 N1         -2.7190   -4.4748    4.4934 N.pl3     1 <0>        -0.7500
     13 C11        -2.9495   -5.2788    5.6120 C.ar      1 <0>         0.2151
     14 C12        -1.8816   -5.7255    6.3803 C.ar      1 <0>        -0.1943
     15 C13        -2.1130   -6.5198    7.4859 C.ar      1 <0>        -0.0775
     16 C14        -3.4061   -6.8711    7.8284 C.ar      1 <0>        -0.1756
     17 C15        -4.4712   -6.4287    7.0657 C.ar      1 <0>        -0.0745
     18 C16        -4.2472   -5.6288    5.9621 C.ar      1 <0>        -0.1646
     19 C17        -5.4091   -5.1415    5.1353 C.3       1 <0>        -0.1054
     20 O1          0.6178   -2.0235    3.5131 O.3       1 <0>        -0.5517
     21 C18         0.0595   -4.2753   -0.0215 C.3       1 <0>        -0.1233
     22 H2          1.0042    1.8801    0.0026 H         1 <0>         0.0718
     23 H3         -0.5455    1.8639   -0.8728 H         1 <0>         0.0671
     24 H4         -0.5286    1.8543    0.9071 H         1 <0>         0.0663
     25 H5         -0.0064   -0.1437   -2.1314 H         1 <0>         0.1230
     26 H6          0.0266   -2.6056   -2.1449 H         1 <0>         0.1239
     27 H7          0.0246   -0.1666    2.1333 H         1 <0>         0.1210
     28 H8         -1.9538   -2.3265    3.0734 H         1 <0>         0.0747
     29 H9         -1.8371   -3.7801    2.0528 H         1 <0>         0.0819
     30 H10        -0.7722   -5.0091    3.9247 H         1 <0>         0.0597
     31 H11        -0.8888   -3.5555    4.9454 H         1 <0>         0.0678
     32 H12        -3.4656   -4.1602    3.9600 H         1 <0>         0.3978
     33 H13        -0.8716   -5.4521    6.1130 H         1 <0>         0.1200
     34 H14        -1.2834   -6.8673    8.0835 H         1 <0>         0.1196
     35 H15        -3.5844   -7.4928    8.6934 H         1 <0>         0.1176
     36 H16        -5.4796   -6.7055    7.3355 H         1 <0>         0.1196
     37 H17        -5.6218   -5.8633    4.3467 H         1 <0>         0.0647
     38 H18        -6.2866   -5.0298    5.7721 H         1 <0>         0.0667
     39 H19        -5.1591   -4.1790    4.6891 H         1 <0>         0.0563
     40 H20         0.1335   -1.2012    3.6694 H         1 <0>         0.3745
     41 H21         1.0917   -4.6253   -0.0291 H         1 <0>         0.0740
     42 H22        -0.4447   -4.6501    0.8693 H         1 <0>         0.0681
     43 H23        -0.4546   -4.6404   -0.9106 H         1 <0>         0.0696
@<TRIPOS>BOND
     1    1    2 1
     2    1   22 1
     3    1   23 1
     4    1   24 1
     5    2    7 ar
     6    2    3 ar
     7    3    4 ar
     8    3   25 1
     9    4    5 ar
    10    4   26 1
    11    5    6 ar
    12    5   21 1
    13    6    7 ar
    14    6    8 1
    15    7   27 1
    16    8    9 1
    17    8   10 1
    18    8   20 1
    19   10   11 1
    20   10   28 1
    21   10   29 1
    22   11   12 1
    23   11   30 1
    24   11   31 1
    25   12   13 1
    26   12   32 1
    27   13   18 ar
    28   13   14 ar
    29   14   15 ar
    30   14   33 1
    31   15   16 ar
    32   15   34 1
    33   16   17 ar
    34   16   35 1
    35   17   18 ar
    36   17   36 1
    37   18   19 1
    38   19   37 1
    39   19   38 1
    40   19   39 1
    41   20   40 1
    42   21   41 1
    43   21   42 1
    44   21   43 1
