@<TRIPOS>MOLECULE
ZINC47835421
   23    24     0     0     0
SMALL
USER_CHARGES

@<TRIPOS>ATOM
      1 C1          0.6338    0.2834    1.1691 C.ar      1 <0>        -0.1338
      2 C2          1.8208    0.9908    1.1731 C.ar      1 <0>        -0.0722
      3 C3          2.3807    1.4115   -0.0236 C.ar      1 <0>         0.0840
      4 C4          1.7474    1.1211   -1.2247 C.ar      1 <0>        -0.0139
      5 C5          0.5603    0.4134   -1.2253 C.ar      1 <0>        -0.1345
      6 C6          0.0030   -0.0057   -0.0288 C.ar      1 <0>         0.1247
      7 F1         -1.1575   -0.6973   -0.0306 F         1 <0>        -0.1236
      8 Cl1         2.4459    1.6472   -2.7244 Cl        1 <0>        -0.0351
      9 O1          3.5484    2.1080   -0.0209 O.3       1 <0>        -0.2927
     10 C7          3.4844    3.4519   -0.1174 C.2       1 <0>         0.5372
     11 O2          2.4048    4.0120   -0.1024 O.2       1 <0>        -0.4681
     12 C8          4.7150    4.2368   -0.2402 C.2       1 <0>        -0.0339
     13 C9          4.7998    5.6105   -0.3406 C.2       1 <0>        -0.0570
     14 C10         6.1570    5.9323   -0.4377 C.2       1 <0>        -0.1870
     15 C11         6.8627    4.7758   -0.3959 C.2       1 <0>         0.0849
     16 N1          5.9984    3.7389   -0.2705 N.pl3     1 <0>        -0.5184
     17 H1          6.2432    2.8020   -0.2136 H         1 <0>         0.4326
     18 Br1         6.8798    7.6722   -0.5992 Br        1 <0>        -0.0132
     19 H2          0.2001   -0.0482    2.1010 H         1 <0>         0.1553
     20 H3          2.3121    1.2162    2.1081 H         1 <0>         0.1538
     21 H4          0.0671    0.1872   -2.1591 H         1 <0>         0.1575
     22 H5          3.9735    6.3059   -0.3442 H         1 <0>         0.1637
     23 H6          7.9383    4.6940   -0.4493 H         1 <0>         0.1895
@<TRIPOS>BOND
     1    1    6 ar
     2    1    2 ar
     3    1   19 1
     4    2    3 ar
     5    2   20 1
     6    3    4 ar
     7    3    9 1
     8    4    5 ar
     9    4    8 1
    10    5    6 ar
    11    5   21 1
    12    6    7 1
    13    9   10 1
    14   10   11 2
    15   10   12 1
    16   12   16 1
    17   12   13 2
    18   13   14 1
    19   13   22 1
    20   14   15 2
    21   14   18 1
    22   15   16 1
    23   15   23 1
    24   16   17 1
