@<TRIPOS>MOLECULE
ZINC14429585
   47    48     0     0     0
SMALL
USER_CHARGES
3-(tert-butylsulfamoyl)-N-(2-iodophenyl)-4-methoxy-benzamide
@<TRIPOS>ATOM
      1 C1         -8.0157    1.8128   -2.2898 C.3       1 <0>        -0.1826
      2 C2         -9.2970    2.6221   -2.0802 C.3       1 <0>         0.1723
      3 C3        -10.3376    2.2089   -3.1229 C.3       1 <0>        -0.1485
      4 C4         -8.9887    4.1132   -2.2305 C.3       1 <0>        -0.1815
      5 N1         -9.8227    2.3652   -0.7371 N.pl3     1 <0>        -1.1018
      6 S1         -8.9753    2.8677    0.5939 S.o2      1 <0>         2.7017
      7 O1         -9.7180    2.4481    1.7304 O.2       1 <0>        -0.9474
      8 O2         -8.6327    4.2280    0.3675 O.2       1 <0>        -0.9484
      9 C5         -7.4624    1.9649    0.6196 C.ar      1 <0>        -0.7145
     10 C6         -6.2637    2.6274    0.4747 C.ar      1 <0>         0.0787
     11 C7         -5.0645    1.9106    0.4953 C.ar      1 <0>        -0.1962
     12 C8         -5.0871    0.5225    0.6577 C.ar      1 <0>         0.0075
     13 C9         -6.2893   -0.1315    0.8081 C.ar      1 <0>        -0.2286
     14 C10        -7.4802    0.5853    0.7866 C.ar      1 <0>         0.2565
     15 O3         -8.6634   -0.0638    0.9296 O.3       1 <0>        -0.3013
     16 C11        -8.6181   -1.4911    0.9829 C.3       1 <0>         0.0206
     17 C12        -3.7779    2.6164    0.3398 C.2       1 <0>         0.5686
     18 O4         -3.7604    3.8234    0.1936 O.2       1 <0>        -0.5047
     19 N2         -2.6222    1.9232    0.3599 N.am      1 <0>        -0.6729
     20 C13        -1.3993    2.6011    0.3232 C.ar      1 <0>         0.1773
     21 C14        -1.2800    3.7828   -0.3967 C.ar      1 <0>        -0.1171
     22 C15        -0.0697    4.4467   -0.4357 C.ar      1 <0>        -0.0804
     23 C16         1.0216    3.9393    0.2458 C.ar      1 <0>        -0.1282
     24 C17         0.9052    2.7663    0.9682 C.ar      1 <0>        -0.0670
     25 C18        -0.3029    2.0969    1.0114 C.ar      1 <0>        -0.1309
     26 I1         -0.4786    0.3195    2.1063 I         1 <0>        -0.0395
     27 H1         -8.2353    0.7505   -2.1827 H         1 <0>         0.0635
     28 H2         -7.6245    2.0040   -3.2891 H         1 <0>         0.0761
     29 H3         -7.2743    2.1072   -1.5469 H         1 <0>         0.0623
     30 H4        -11.2504    2.7855   -2.9736 H         1 <0>         0.0662
     31 H5         -9.9464    2.4001   -4.1222 H         1 <0>         0.0729
     32 H6        -10.5572    1.1466   -3.0158 H         1 <0>         0.0625
     33 H7         -8.1553    4.3793   -1.5803 H         1 <0>         0.0851
     34 H8         -8.7241    4.3269   -3.2661 H         1 <0>         0.0692
     35 H9         -9.8670    4.6957   -1.9522 H         1 <0>         0.0693
     36 H10       -10.6672    1.9007   -0.6275 H         1 <0>         0.4201
     37 H11        -6.2507    3.6995    0.3450 H         1 <0>         0.1667
     38 H12        -4.1626   -0.0356    0.6700 H         1 <0>         0.1351
     39 H13        -6.3074   -1.2035    0.9381 H         1 <0>         0.1485
     40 H14        -8.0082   -1.8038    1.8305 H         1 <0>         0.0667
     41 H15        -9.6288   -1.8826    1.0984 H         1 <0>         0.1135
     42 H16        -8.1827   -1.8755    0.0605 H         1 <0>         0.0658
     43 H17        -2.6386    0.9541    0.3999 H         1 <0>         0.4095
     44 H18        -2.1316    4.1798   -0.9292 H         1 <0>         0.1514
     45 H19         0.0249    5.3631   -0.9993 H         1 <0>         0.1354
     46 H20         1.9670    4.4604    0.2133 H         1 <0>         0.1343
     47 H21         1.7593    2.3725    1.4990 H         1 <0>         0.1342
@<TRIPOS>BOND
     1    1    2 1
     2    1   27 1
     3    1   28 1
     4    1   29 1
     5    2    3 1
     6    2    4 1
     7    2    5 1
     8    3   30 1
     9    3   31 1
    10    3   32 1
    11    4   33 1
    12    4   34 1
    13    4   35 1
    14    5    6 1
    15    5   36 1
    16    6    7 2
    17    6    8 2
    18    6    9 1
    19    9   14 ar
    20    9   10 ar
    21   10   11 ar
    22   10   37 1
    23   11   12 ar
    24   11   17 1
    25   12   13 ar
    26   12   38 1
    27   13   14 ar
    28   13   39 1
    29   14   15 1
    30   15   16 1
    31   16   40 1
    32   16   41 1
    33   16   42 1
    34   17   18 2
    35   17   19 am
    36   19   20 1
    37   19   43 1
    38   20   25 ar
    39   20   21 ar
    40   21   22 ar
    41   21   44 1
    42   22   23 ar
    43   22   45 1
    44   23   24 ar
    45   23   46 1
    46   24   25 ar
    47   24   47 1
    48   25   26 1
