@<TRIPOS>MOLECULE
ZINC37784094
   27    29     0     0     0
SMALL
USER_CHARGES

@<TRIPOS>ATOM
      1 C1         -0.0167    1.3837    0.0096 C.ar      1 <0>        -0.0137
      2 C2          1.1575    2.1022    0.0023 C.ar      1 <0>        -0.2069
      3 C3          2.3813    1.4373   -0.0130 C.ar      1 <0>         0.1723
      4 C4          2.4114    0.0309   -0.0208 C.ar      1 <0>        -0.2372
      5 C5          3.7734   -0.3519   -0.0359 C.2       1 <0>         0.0839
      6 N1          4.5079    0.7225   -0.0372 N.2       1 <0>        -0.2620
      7 N2          3.6870    1.8567   -0.0232 N.pl3     1 <0>        -0.5078
      8 H1          3.9892    2.7785   -0.0216 H         1 <0>         0.4418
      9 C6          1.2027   -0.6882   -0.0132 C.ar      1 <0>         0.2947
     10 C7          0.0021   -0.0041    0.0020 C.ar      1 <0>        -0.2520
     11 N3          1.2157   -2.0820   -0.0212 N.pl3     1 <0>        -0.7354
     12 C8         -0.0460   -2.8263   -0.0132 C.3       1 <0>         0.2115
     13 C9          0.2431   -4.3053   -0.0244 C.2       1 <0>        -0.1658
     14 C10         0.4118   -5.1500    1.0223 C.2       1 <0>        -0.1161
     15 C11         0.6719   -6.4846    0.7715 C.2       1 <0>        -0.1284
     16 C12         0.7506   -6.9085   -0.5140 C.2       1 <0>        -0.1335
     17 S1          0.4447   -5.4007   -1.4196 S.3       1 <0>         0.1009
     18 Br1         0.9150   -7.7001    2.1996 Br        1 <0>        -0.0309
     19 H2         -0.9623    1.9052    0.0260 H         1 <0>         0.1296
     20 H3          1.1297    3.1818    0.0080 H         1 <0>         0.1226
     21 H4          4.1423   -1.3669   -0.0446 H         1 <0>         0.1854
     22 H5         -0.9280   -0.5531    0.0083 H         1 <0>         0.1255
     23 H6          2.0602   -2.5591   -0.0322 H         1 <0>         0.4036
     24 H7         -0.6113   -2.5735    0.8838 H         1 <0>         0.0905
     25 H8         -0.6287   -2.5633   -0.8960 H         1 <0>         0.0832
     26 H9          0.3443   -4.7860    2.0368 H         1 <0>         0.1457
     27 H10         0.9436   -7.9016   -0.8921 H         1 <0>         0.1984
@<TRIPOS>BOND
     1    1   10 ar
     2    1    2 ar
     3    1   19 1
     4    2    3 ar
     5    2   20 1
     6    3    7 1
     7    3    4 ar
     8    4    5 1
     9    4    9 ar
    10    5    6 2
    11    5   21 1
    12    6    7 1
    13    7    8 1
    14    9   10 ar
    15    9   11 1
    16   10   22 1
    17   11   12 1
    18   11   23 1
    19   12   13 1
    20   12   24 1
    21   12   25 1
    22   13   17 1
    23   13   14 2
    24   14   15 1
    25   14   26 1
    26   15   16 2
    27   15   18 1
    28   16   17 1
    29   16   27 1
