@<TRIPOS>MOLECULE
ZINC08867503
   62    66     0     0     0
SMALL
USER_CHARGES
N-[(2,4-dichlorophenyl)-[1-(2,6-dimethylphenyl)tetrazol-5-yl]-methyl]-2-(2-methyl-1H-indol-3-yl)-ethanamine
@<TRIPOS>ATOM
      1 C1         -1.1614    2.7774   -2.2715 C.3       1 <0>        -0.1280
      2 C2         -1.1107    2.2845   -0.8483 C.ar      1 <0>        -0.0470
      3 C3         -1.4142    0.9679   -0.5615 C.ar      1 <0>        -0.1132
      4 C4         -1.3670    0.5147    0.7440 C.ar      1 <0>        -0.0675
      5 C5         -1.0216    1.3789    1.7667 C.ar      1 <0>        -0.1120
      6 C6         -0.7123    2.6954    1.4854 C.ar      1 <0>        -0.0378
      7 C7         -0.7584    3.1531    0.1756 C.ar      1 <0>         0.0645
      8 N1         -0.4492    4.4905   -0.1126 N.pl3     1 <0>        -0.2816
      9 C8         -1.2958    5.5428   -0.1291 C.2       1 <0>         0.1899
     10 N2         -0.5947    6.6002   -0.4451 N.2       1 <0>        -0.3142
     11 N3          0.6373    6.2881   -0.6295 N.2       1 <0>        -0.0134
     12 N4          0.8096    5.0243   -0.4404 N.2       1 <0>        -0.0248
     13 C9         -2.7737    5.5052    0.1630 C.3       1 <0>         0.1821
     14 H1         -3.1535    4.4989   -0.0134 H         1 <0>         0.1699
     15 C10        -3.0114    5.8868    1.6014 C.ar      1 <0>        -0.1564
     16 C11        -2.1252    6.7275    2.2488 C.ar      1 <0>        -0.0574
     17 C12        -2.3455    7.0823    3.5662 C.ar      1 <0>        -0.0959
     18 C13        -3.4473    6.5873    4.2414 C.ar      1 <0>         0.0128
     19 C14        -4.3312    5.7417    3.5959 C.ar      1 <0>        -0.0941
     20 C15        -4.1132    5.3913    2.2754 C.ar      1 <0>         0.0036
     21 Cl1        -5.2217    4.3296    1.4645 Cl        1 <0>        -0.0259
     22 Cl2        -3.7204    7.0280    5.8982 Cl        1 <0>        -0.0153
     23 C16        -4.7982    5.9460   -1.0899 C.3       1 <0>        -0.0229
     24 C17        -5.4785    6.9422   -2.0309 C.3       1 <0>        -0.0560
     25 C18        -6.8401    6.4221   -2.4139 C.2       1 <0>        -0.2024
     26 C19        -7.1302    5.6447   -3.4690 C.2       1 <0>         0.1146
     27 N5         -8.4707    5.3711   -3.4925 N.pl3     1 <0>        -0.5856
     28 H2         -8.9165    4.8258   -4.1595 H         1 <0>         0.4208
     29 C20        -9.0932    5.9889   -2.4311 C.ar      1 <0>         0.0965
     30 C21        -8.0992    6.6744   -1.7088 C.ar      1 <0>        -0.0946
     31 C22        -8.4433    7.3999   -0.5670 C.ar      1 <0>        -0.0833
     32 C23        -9.7461    7.4413   -0.1565 C.ar      1 <0>        -0.1316
     33 C24       -10.7303    6.7668   -0.8654 C.ar      1 <0>        -0.0936
     34 C25       -10.4127    6.0444   -1.9949 C.ar      1 <0>        -0.1221
     35 C26        -6.1273    5.1441   -4.4764 C.3       1 <0>        -0.1075
     36 C27        -0.3308    3.6352    2.5999 C.3       1 <0>        -0.1275
     37 H3         -2.1628    3.1465   -2.4928 H         1 <0>         0.0743
     38 H4         -0.4398    3.5838   -2.4027 H         1 <0>         0.0649
     39 H5         -0.9181    1.9586   -2.9486 H         1 <0>         0.0914
     40 H6         -1.6883    0.2917   -1.3578 H         1 <0>         0.1447
     41 H7         -1.6047   -0.5152    0.9659 H         1 <0>         0.1440
     42 H8         -0.9895    1.0231    2.7859 H         1 <0>         0.1447
     43 H9         -1.2628    7.1105    1.7236 H         1 <0>         0.1543
     44 H10        -1.6553    7.7426    4.0702 H         1 <0>         0.1594
     45 H11        -5.1911    5.3548    4.1226 H         1 <0>         0.1639
     46 H12        -4.6918    4.9851   -1.5933 H         1 <0>         0.1330
     47 H13        -5.4048    5.8209   -0.1929 H         1 <0>         0.1403
     48 H14        -5.5850    7.9031   -1.5275 H         1 <0>         0.0973
     49 H15        -4.8719    7.0672   -2.9279 H         1 <0>         0.0940
     50 H16        -7.6826    7.9269   -0.0101 H         1 <0>         0.1185
     51 H17       -10.0118    8.0027    0.7271 H         1 <0>         0.1267
     52 H18       -11.7555    6.8083   -0.5282 H         1 <0>         0.1309
     53 H19       -11.1858    5.5227   -2.5396 H         1 <0>         0.1246
     54 H20        -5.7273    4.1857   -4.1455 H         1 <0>         0.0813
     55 H21        -6.6147    5.0200   -5.4434 H         1 <0>         0.0793
     56 H22        -5.3146    5.8646   -4.5689 H         1 <0>         0.0866
     57 H23        -1.2330    4.0299    3.0671 H         1 <0>         0.0788
     58 H24         0.2579    3.0975    3.3431 H         1 <0>         0.0905
     59 H25         0.2586    4.4581    2.1954 H         1 <0>         0.0608
     60 N6         -3.4669    6.4623   -0.7199 N.4       1 <0>        -0.5100
     61 H26        -2.9097    6.6030   -1.5707 H         1 <0>         0.4393
     62 H27        -3.5753    7.3580   -0.2297 H         1 <0>         0.4435
@<TRIPOS>BOND
     1    1    2 1
     2    1   37 1
     3    1   38 1
     4    1   39 1
     5    2    7 ar
     6    2    3 ar
     7    3    4 ar
     8    3   40 1
     9    4    5 ar
    10    4   41 1
    11    5    6 ar
    12    5   42 1
    13    6    7 ar
    14    6   36 1
    15    7    8 1
    16    8   12 1
    17    8    9 1
    18    9   10 2
    19    9   13 1
    20   10   11 1
    21   11   12 2
    22   13   14 1
    23   13   15 1
    24   13   60 1
    25   15   20 ar
    26   15   16 ar
    27   16   17 ar
    28   16   43 1
    29   17   18 ar
    30   17   44 1
    31   18   19 ar
    32   18   22 1
    33   19   20 ar
    34   19   45 1
    35   20   21 1
    36   23   24 1
    37   23   46 1
    38   23   47 1
    39   23   60 1
    40   24   25 1
    41   24   48 1
    42   24   49 1
    43   25   30 1
    44   25   26 2
    45   26   27 1
    46   26   35 1
    47   27   28 1
    48   27   29 1
    49   29   34 ar
    50   29   30 ar
    51   30   31 ar
    52   31   32 ar
    53   31   50 1
    54   32   33 ar
    55   32   51 1
    56   33   34 ar
    57   33   52 1
    58   34   53 1
    59   35   54 1
    60   35   55 1
    61   35   56 1
    62   36   57 1
    63   36   58 1
    64   36   59 1
    65   60   61 1
    66   60   62 1
