@<TRIPOS>MOLECULE
ZINC39388329
   71    76     0     0     0
SMALL
USER_CHARGES

@<TRIPOS>ATOM
      1 C1         -0.0187    1.5258    0.0104 C.3       1 <0>        -0.1557
      2 C2          0.0021   -0.0041    0.0020 C.3       1 <0>         0.1296
      3 C3         -1.4025   -0.5572    0.1392 C.2       1 <0>         0.5274
      4 O1         -2.3322   -0.3918   -0.6211 O.2       1 <0>        -0.4491
      5 N1         -1.4027   -1.2718    1.2819 N.am      1 <0>        -0.5676
      6 C4         -0.2059   -1.2473    1.8794 C.2       1 <0>         0.6989
      7 O2          0.0398   -1.8188    2.9235 O.2       1 <0>        -0.5166
      8 N2          0.6953   -0.5196    1.1952 N.am      1 <0>        -0.7258
      9 C5         -2.5694   -1.9865    1.8054 C.3       1 <0>         0.1459
     10 C6         -2.8487   -1.5832    3.2689 C.3       1 <0>        -0.0934
     11 C7         -3.3491   -2.8449    3.9389 C.ar      1 <0>        -0.0901
     12 C8         -4.0369   -3.0170    5.1286 C.ar      1 <0>        -0.1024
     13 C9         -4.3958   -4.2833    5.5470 C.ar      1 <0>        -0.1125
     14 C10        -4.0678   -5.3833    4.7764 C.ar      1 <0>        -0.1154
     15 C11        -3.3819   -5.2137    3.5898 C.ar      1 <0>        -0.1026
     16 C12        -3.0211   -3.9446    3.1685 C.ar      1 <0>        -0.0975
     17 C13        -2.2779   -3.4972    1.9281 C.3       1 <0>        -0.0851
     18 C14         0.6670   -0.5248   -1.2738 C.3       1 <0>        -0.0934
     19 C15         0.7001   -2.0556   -1.2459 C.3       1 <0>        -0.1513
     20 C16         1.4365   -2.5671   -2.4858 C.3       1 <0>        -0.0028
     21 N3          2.8090   -2.0466   -2.4936 N.4       1 <0>        -0.3811
     22 C17         2.7858   -0.5823   -2.5928 C.3       1 <0>        -0.0201
     23 C18         2.1012    0.0056   -1.3569 C.3       1 <0>        -0.1420
     24 C19         3.5353   -2.6022   -3.6433 C.3       1 <0>         0.0454
     25 C20         4.9769   -2.1672   -3.5846 C.2       1 <0>        -0.1921
     26 C21         5.8990   -2.9324   -3.0471 C.2       1 <0>        -0.0671
     27 C22         7.3305   -2.4556   -3.0008 C.3       1 <0>        -0.0912
     28 C23         7.4472   -1.0995   -3.7101 C.3       1 <0>        -0.1098
     29 H1          8.4634   -0.7070   -3.7460 H         1 <0>         0.0933
     30 C24         6.6902   -1.0590   -5.0486 C.3       1 <0>        -0.1275
     31 C25         5.4208   -0.8294   -4.1505 C.3       1 <0>        -0.0801
     32 H2          4.6226   -0.2280   -4.5855 H         1 <0>         0.0941
     33 C26         6.3865   -0.1117   -3.1826 C.3       1 <0>        -0.0751
     34 C27         6.0429   -0.3032   -1.7040 C.3       1 <0>        -0.1531
     35 C28         6.6612    1.3475   -3.5517 C.3       1 <0>        -0.1348
     36 H3          1.0039    1.9031    0.0027 H         1 <0>         0.0844
     37 H4         -0.5459    1.8868   -0.8726 H         1 <0>         0.0903
     38 H5         -0.5289    1.8773    0.9072 H         1 <0>         0.0774
     39 H6          1.6211   -0.3648    1.4398 H         1 <0>         0.4388
     40 H7         -3.4433   -1.8102    1.1783 H         1 <0>         0.1253
     41 H8         -1.9321   -1.2387    3.7477 H         1 <0>         0.0994
     42 H9         -3.6119   -0.8060    3.3079 H         1 <0>         0.0845
     43 H10        -4.2932   -2.1582    5.7313 H         1 <0>         0.1229
     44 H11        -4.9318   -4.4141    6.4754 H         1 <0>         0.1283
     45 H12        -4.3474   -6.3743    5.1022 H         1 <0>         0.1277
     46 H13        -3.1261   -6.0735    2.9883 H         1 <0>         0.1208
     47 H14        -2.6515   -4.0268    1.0517 H         1 <0>         0.0820
     48 H15        -1.2078   -3.6675    2.0463 H         1 <0>         0.0904
     49 H16         0.1025   -0.1870   -2.1429 H         1 <0>         0.1174
     50 H17         1.2201   -2.3921   -0.3490 H         1 <0>         0.0938
     51 H18        -0.3192   -2.4417   -1.2429 H         1 <0>         0.1106
     52 H19         1.4618   -3.6567   -2.4692 H         1 <0>         0.1341
     53 H20         0.9156   -2.2302   -3.3820 H         1 <0>         0.1338
     54 H21         3.8070   -0.2066   -2.6551 H         1 <0>         0.1449
     55 H22         2.2360   -0.2877   -3.4867 H         1 <0>         0.1321
     56 H23         2.0834    1.0928   -1.4333 H         1 <0>         0.1223
     57 H24         2.6503   -0.2882   -0.4623 H         1 <0>         0.0896
     58 H25         3.4828   -3.6906   -3.6147 H         1 <0>         0.1338
     59 H26         3.0840   -2.2409   -4.5673 H         1 <0>         0.1357
     60 H27         5.6346   -3.8972   -2.6403 H         1 <0>         0.1253
     61 H28         7.6441   -2.3499   -1.9623 H         1 <0>         0.0956
     62 H29         7.9712   -3.1824   -3.5002 H         1 <0>         0.0937
     63 H30         6.9454   -0.2039   -5.6746 H         1 <0>         0.0947
     64 H31         6.7002   -2.0048   -5.5903 H         1 <0>         0.0753
     65 H32         6.8147    0.1594   -1.0888 H         1 <0>         0.0688
     66 H33         5.0808    0.1629   -1.4912 H         1 <0>         0.0525
     67 H34         5.9885   -1.3682   -1.4786 H         1 <0>         0.0619
     68 H35         7.0255    1.4003   -4.5777 H         1 <0>         0.0653
     69 H36         5.7406    1.9242   -3.4629 H         1 <0>         0.0605
     70 H37         7.4133    1.7574   -2.8776 H         1 <0>         0.0670
     71 H38         3.2752   -2.3176   -1.6409 H         1 <0>         0.4198
@<TRIPOS>BOND
     1    1    2 1
     2    1   36 1
     3    1   37 1
     4    1   38 1
     5    2    8 1
     6    2    3 1
     7    2   18 1
     8    3    4 2
     9    3    5 am
    10    5    6 am
    11    5    9 1
    12    6    7 2
    13    6    8 am
    14    8   39 1
    15    9   17 1
    16    9   10 1
    17    9   40 1
    18   10   11 1
    19   10   41 1
    20   10   42 1
    21   11   16 ar
    22   11   12 ar
    23   12   13 ar
    24   12   43 1
    25   13   14 ar
    26   13   44 1
    27   14   15 ar
    28   14   45 1
    29   15   16 ar
    30   15   46 1
    31   16   17 1
    32   17   47 1
    33   17   48 1
    34   18   23 1
    35   18   19 1
    36   18   49 1
    37   19   20 1
    38   19   50 1
    39   19   51 1
    40   20   21 1
    41   20   52 1
    42   20   53 1
    43   21   22 1
    44   21   24 1
    45   21   71 1
    46   22   23 1
    47   22   54 1
    48   22   55 1
    49   23   56 1
    50   23   57 1
    51   24   25 1
    52   24   58 1
    53   24   59 1
    54   25   31 1
    55   25   26 2
    56   26   27 1
    57   26   60 1
    58   27   28 1
    59   27   61 1
    60   27   62 1
    61   28   29 1
    62   28   33 1
    63   28   30 1
    64   30   31 1
    65   30   63 1
    66   30   64 1
    67   31   32 1
    68   31   33 1
    69   33   34 1
    70   33   35 1
    71   34   65 1
    72   34   66 1
    73   34   67 1
    74   35   68 1
    75   35   69 1
    76   35   70 1
