@<TRIPOS>MOLECULE
ZINC34812260
   48    51     0     0     0
SMALL
USER_CHARGES

@<TRIPOS>ATOM
      1 C1         -0.0167    1.3781    0.0096 C.ar      1 <0>        -0.0918
      2 C2          1.1709    2.0855    0.0021 C.ar      1 <0>        -0.0630
      3 C3          2.3773    1.4107   -0.0130 C.ar      1 <0>        -0.1449
      4 C4          2.3960    0.0285   -0.0201 C.ar      1 <0>        -0.0640
      5 C5          1.2085   -0.6789   -0.0117 C.ar      1 <0>        -0.0986
      6 C6          0.0021   -0.0041    0.0020 C.ar      1 <0>        -0.1320
      7 C7         -1.2926   -0.7753    0.0107 C.3       1 <0>         0.0401
      8 N1         -1.7270   -1.0184   -1.3714 N.4       1 <0>        -0.3832
      9 C8         -0.7525   -1.8862   -2.0434 C.3       1 <0>        -0.0132
     10 C9         -1.1575   -2.0777   -3.5066 C.3       1 <0>        -0.1593
     11 C10        -2.5451   -2.7224   -3.5663 C.3       1 <0>         0.4047
     12 C11        -3.5386   -1.8448   -2.7991 C.3       1 <0>        -0.1693
     13 C12        -3.0455   -1.6633   -1.3619 C.3       1 <0>        -0.0051
     14 N2         -2.9729   -2.8244   -4.9666 N.pl3     1 <0>        -0.7388
     15 C13        -4.0344   -3.6674   -5.2798 C.ar      1 <0>         0.2399
     16 C14        -4.8719   -3.4170   -6.3529 C.ar      1 <0>        -0.1617
     17 C15        -5.9053   -4.2908   -6.6341 C.ar      1 <0>        -0.0254
     18 C16        -6.1092   -5.4164   -5.8510 C.ar      1 <0>        -0.0796
     19 C17        -5.2852   -5.6787   -4.7727 C.ar      1 <0>         0.0552
     20 C18        -4.2441   -4.8003   -4.4744 C.ar      1 <0>        -0.1925
     21 C19        -3.3560   -5.0200   -3.3201 C.2       1 <0>         0.5742
     22 O1         -3.4003   -6.0666   -2.7023 O.2       1 <0>        -0.4861
     23 N3         -2.4935   -4.0505   -2.9544 N.am      1 <0>        -0.7421
     24 Cl1        -5.5452   -7.0904   -3.7965 Cl        1 <0>         0.0012
     25 Cl2        -7.4085   -6.5044   -6.2276 Cl        1 <0>        -0.0303
     26 C20         3.6720    2.1819   -0.0222 C.3       1 <0>         0.5031
     27 F1          4.0857    2.4144    1.2938 F         1 <0>        -0.1674
     28 F2          4.6506    1.4423   -0.6949 F         1 <0>        -0.1705
     29 F3          3.4816    3.4050   -0.6742 F         1 <0>        -0.1703
     30 H1         -0.9591    1.9053    0.0259 H         1 <0>         0.1464
     31 H2          1.1563    3.1654    0.0076 H         1 <0>         0.1513
     32 H3          3.3385   -0.4987   -0.0326 H         1 <0>         0.1513
     33 H4          1.2231   -1.7588   -0.0179 H         1 <0>         0.1456
     34 H5         -1.1443   -1.7285    0.5180 H         1 <0>         0.1430
     35 H6         -2.0551   -0.1993    0.5352 H         1 <0>         0.1463
     36 H7          0.2349   -1.4267   -1.9974 H         1 <0>         0.1449
     37 H8         -0.7249   -2.8551   -1.5448 H         1 <0>         0.1321
     38 H9         -1.1842   -1.1095   -4.0066 H         1 <0>         0.1146
     39 H10        -0.4340   -2.7245   -4.0029 H         1 <0>         0.1307
     40 H11        -3.6143   -0.8714   -3.2837 H         1 <0>         0.1092
     41 H12        -4.5171   -2.3250   -2.7903 H         1 <0>         0.1203
     42 H13        -2.9696   -2.6373   -0.8785 H         1 <0>         0.1342
     43 H14        -3.7506   -1.0397   -0.8123 H         1 <0>         0.1429
     44 H15        -2.5249   -2.3142   -5.6594 H         1 <0>         0.4221
     45 H16        -4.7185   -2.5428   -6.9682 H         1 <0>         0.1497
     46 H17        -6.5595   -4.0948   -7.4707 H         1 <0>         0.1553
     47 H18        -1.8276   -4.2365   -2.2741 H         1 <0>         0.4056
     48 H19        -1.7872   -0.1396   -1.8635 H         1 <0>         0.4253
@<TRIPOS>BOND
     1    1    6 ar
     2    1    2 ar
     3    1   30 1
     4    2    3 ar
     5    2   31 1
     6    3    4 ar
     7    3   26 1
     8    4    5 ar
     9    4   32 1
    10    5    6 ar
    11    5   33 1
    12    6    7 1
    13    7    8 1
    14    7   34 1
    15    7   35 1
    16    8   13 1
    17    8    9 1
    18    8   48 1
    19    9   10 1
    20    9   36 1
    21    9   37 1
    22   10   11 1
    23   10   38 1
    24   10   39 1
    25   11   23 1
    26   11   12 1
    27   11   14 1
    28   12   13 1
    29   12   40 1
    30   12   41 1
    31   13   42 1
    32   13   43 1
    33   14   15 1
    34   14   44 1
    35   15   20 ar
    36   15   16 ar
    37   16   17 ar
    38   16   45 1
    39   17   18 ar
    40   17   46 1
    41   18   19 ar
    42   18   25 1
    43   19   20 ar
    44   19   24 1
    45   20   21 1
    46   21   22 2
    47   21   23 am
    48   23   47 1
    49   26   27 1
    50   26   28 1
    51   26   29 1
