@<TRIPOS>MOLECULE
ZINC20218730
   32    33     0     0     0
SMALL
USER_CHARGES
4-[3-chloro-5-(trifluoromethyl)-2-pyridyl]piperazine-1-carbothioamide
@<TRIPOS>ATOM
      1 C1         -2.1930    4.7080   -4.0570 C.ar      1 <0>        -0.0011
      2 C2         -2.9515    3.7306   -4.6880 C.ar      1 <0>        -0.2431
      3 C3         -3.0244    2.4687   -4.1340 C.ar      1 <0>         0.1790
      4 N1         -2.3842    2.1816   -3.0161 N.ar      1 <0>        -0.4973
      5 C4         -1.6511    3.0848   -2.3843 C.ar      1 <0>         0.3448
      6 C5         -1.5375    4.3797   -2.8834 C.ar      1 <0>        -0.0852
      7 Cl1        -0.5814    5.5639   -2.0484 Cl        1 <0>        -0.0184
      8 N2         -0.9934    2.7388   -1.2089 N.pl3     1 <0>        -0.4766
      9 C6         -0.7285    1.2948   -1.1593 C.3       1 <0>         0.0483
     10 C7          0.1513    0.9817    0.0557 C.3       1 <0>         0.0981
     11 N3         -0.4893    1.5379    1.2572 N.pl3     1 <0>        -0.5760
     12 C8         -0.9135    2.9466    1.2299 C.3       1 <0>         0.1086
     13 C9         -1.7514    3.1824   -0.0314 C.3       1 <0>         0.0459
     14 C10        -0.6867    0.7762    2.3514 C.2       1 <0>         0.5845
     15 S1         -1.5570    1.4036    3.6855 S.2       1 <0>        -0.6585
     16 N4         -0.1990   -0.4795    2.3953 N.pl3     1 <0>        -0.8284
     17 C11        -3.6872    4.0446   -5.9652 C.3       1 <0>         0.5205
     18 F1         -4.3723    2.9054   -6.4010 F         1 <0>        -0.1712
     19 F2         -4.6009    5.0786   -5.7349 F         1 <0>        -0.1706
     20 F3         -2.7713    4.4414   -6.9455 F         1 <0>        -0.1708
     21 H1         -2.1200    5.7031   -4.4705 H         1 <0>         0.1620
     22 H2         -3.6129    1.7058   -4.6219 H         1 <0>         0.1802
     23 H3         -1.6804    0.7501   -1.0744 H         1 <0>         0.0686
     24 H4         -0.2098    0.9854   -2.0786 H         1 <0>         0.1006
     25 H5          0.2584   -0.1081    0.1598 H         1 <0>         0.0915
     26 H6          1.1434    1.4360   -0.0832 H         1 <0>         0.0951
     27 H7         -1.5148    3.1659    2.1246 H         1 <0>         0.1407
     28 H8         -0.0262    3.5966    1.2162 H         1 <0>         0.0911
     29 H9         -1.9810    4.2540   -0.1255 H         1 <0>         0.1041
     30 H10        -2.6890    2.6113    0.0377 H         1 <0>         0.0620
     31 H11        -0.3601   -1.1012    3.2884 H         1 <0>         0.4601
     32 H12         0.3601   -0.8826    1.5381 H         1 <0>         0.4112
@<TRIPOS>BOND
     1    1    6 ar
     2    1    2 ar
     3    1   21 1
     4    2    3 ar
     5    2   17 1
     6    3    4 ar
     7    3   22 1
     8    4    5 ar
     9    5    6 ar
    10    5    8 1
    11    6    7 1
    12    8   13 1
    13    8    9 1
    14    9   10 1
    15    9   23 1
    16    9   24 1
    17   10   11 1
    18   10   25 1
    19   10   26 1
    20   11   12 1
    21   11   14 1
    22   12   13 1
    23   12   27 1
    24   12   28 1
    25   13   29 1
    26   13   30 1
    27   14   15 2
    28   14   16 1
    29   16   31 1
    30   16   32 1
    31   17   18 1
    32   17   19 1
    33   17   20 1
