@<TRIPOS>MOLECULE
ZINC28922843
   26    28     0     0     0
SMALL
USER_CHARGES
(2S)-2-(5-bromo-3-thienyl)-2,3-dihydro-1H-quinazolin-4-one
@<TRIPOS>ATOM
      1 C1         -0.0167    1.3819    0.0096 C.ar      1 <0>        -0.1725
      2 C2          0.0021   -0.0041    0.0020 C.ar      1 <0>        -0.0533
      3 C3          1.2013   -0.6904   -0.0120 C.ar      1 <0>        -0.1858
      4 C4          2.3931    0.0135   -0.0180 C.ar      1 <0>         0.2400
      5 C5          2.3778    1.4198   -0.0127 C.ar      1 <0>        -0.2025
      6 C6          1.1621    2.0986    0.0022 C.ar      1 <0>        -0.0222
      7 C7          3.6664    2.1356   -0.0256 C.2       1 <0>         0.5758
      8 O1          3.7062    3.3257   -0.2723 O.2       1 <0>        -0.5369
      9 N1          4.8010    1.4552    0.2389 N.am      1 <0>        -0.7485
     10 C8          4.7670    0.0422    0.6156 C.3       1 <0>         0.4469
     11 H1          5.6936   -0.4286    0.2554 H         1 <0>         0.1168
     12 N2          3.6269   -0.6272   -0.0230 N.pl3     1 <0>        -0.7616
     13 C9          4.6344   -0.0720    2.1124 C.2       1 <0>        -0.1658
     14 C10         5.1597    0.9033    2.9397 C.2       1 <0>        -0.0932
     15 C11         5.0224    0.7698    4.2824 C.2       1 <0>        -0.1781
     16 S1          4.1285   -0.7702    4.4108 S.3       1 <0>         0.1065
     17 C12         3.9937   -1.1294    2.6673 C.2       1 <0>        -0.1278
     18 Br1         5.6213    1.9176    5.6607 Br        1 <0>         0.0421
     19 H2         -0.9616    1.9049    0.0169 H         1 <0>         0.1278
     20 H3         -0.9285   -0.5522    0.0068 H         1 <0>         0.1279
     21 H4          1.2087   -1.7703   -0.0187 H         1 <0>         0.1287
     22 H5          1.1421    3.1784    0.0077 H         1 <0>         0.1334
     23 H6          5.7638    1.9822    0.1670 H         1 <0>         0.4317
     24 H7          3.7600   -1.6136   -0.4913 H         1 <0>         0.4374
     25 H8          5.6718    1.7581    2.5231 H         1 <0>         0.1414
     26 H9          3.5240   -1.9716    2.1809 H         1 <0>         0.1919
@<TRIPOS>BOND
     1    1    6 ar
     2    1    2 ar
     3    1   19 1
     4    2    3 ar
     5    2   20 1
     6    3    4 ar
     7    3   21 1
     8    4   12 1
     9    4    5 ar
    10    5    6 ar
    11    5    7 1
    12    6   22 1
    13    7    8 2
    14    7    9 am
    15    9   10 1
    16    9   23 1
    17   10   11 1
    18   10   12 1
    19   10   13 1
    20   12   24 1
    21   13   17 2
    22   13   14 1
    23   14   15 2
    24   14   25 1
    25   15   16 1
    26   15   18 1
    27   16   17 1
    28   17   26 1
