@<TRIPOS>MOLECULE
ZINC17965073
   40    41     0     0     0
SMALL
USER_CHARGES
N-[(1R)-1-(2-bromophenyl)ethyl]-2-methyl-5-sulfamoyl-benzamide
@<TRIPOS>ATOM
      1 C1         -0.0944   -0.0037   -0.0056 C.3       1 <0>        -0.1347
      2 C2         -0.0647    1.5029    0.0066 C.ar      1 <0>         0.0396
      3 C3          1.1119    2.1734   -0.2576 C.ar      1 <0>        -0.1480
      4 C4          1.1409    3.5565   -0.2467 C.ar      1 <0>         0.0116
      5 C5         -0.0082    4.2766    0.0289 C.ar      1 <0>        -0.6915
      6 C6         -1.1909    3.6186    0.2952 C.ar      1 <0>         0.0179
      7 C7         -1.2284    2.2232    0.2796 C.ar      1 <0>        -0.1611
      8 C8         -2.4941    1.5114    0.5575 C.2       1 <0>         0.5631
      9 O1         -2.5010    0.2999    0.6567 O.2       1 <0>        -0.5185
     10 N1         -3.6403    2.2058    0.7009 N.am      1 <0>        -0.7231
     11 C9         -4.8944    1.5004    0.9763 C.3       1 <0>         0.1763
     12 H1         -4.6941    0.6376    1.6115 H         1 <0>         0.1124
     13 C10        -5.5154    1.0310   -0.3408 C.3       1 <0>        -0.1590
     14 C11        -5.8499    2.4303    1.6789 C.ar      1 <0>        -0.0668
     15 C12        -5.7289    3.7978    1.5164 C.ar      1 <0>        -0.1139
     16 C13        -6.6055    4.6507    2.1603 C.ar      1 <0>        -0.0939
     17 C14        -7.6039    4.1366    2.9669 C.ar      1 <0>        -0.1124
     18 C15        -7.7256    2.7697    3.1299 C.ar      1 <0>        -0.0832
     19 C16        -6.8515    1.9155    2.4817 C.ar      1 <0>        -0.0849
     20 Br1        -7.0219    0.0447    2.6988 Br        1 <0>        -0.0393
     21 S1          0.0397    6.0379    0.0403 S.o2      1 <0>         2.7023
     22 O2         -1.0376    6.4682    0.8610 O.2       1 <0>        -0.9608
     23 O3          1.3878    6.4059    0.2979 O.2       1 <0>        -0.9584
     24 N2         -0.3042    6.5470   -1.4975 N.pl3     1 <0>        -1.2494
     25 H2          0.0147   -0.3776    1.0124 H         1 <0>         0.0876
     26 H3         -1.0438   -0.3450   -0.4182 H         1 <0>         0.1037
     27 H4          0.7243   -0.3783   -0.6200 H         1 <0>         0.0673
     28 H5          2.0122    1.6173   -0.4737 H         1 <0>         0.1449
     29 H6          2.0644    4.0765   -0.4545 H         1 <0>         0.1505
     30 H7         -2.0869    4.1817    0.5104 H         1 <0>         0.1423
     31 H8         -3.6348    3.1725    0.6218 H         1 <0>         0.3985
     32 H9         -6.4485    0.5062   -0.1359 H         1 <0>         0.0741
     33 H10        -5.7158    1.8939   -0.9760 H         1 <0>         0.0611
     34 H11        -4.8244    0.3584   -0.8490 H         1 <0>         0.0709
     35 H12        -4.9491    4.1997    0.8865 H         1 <0>         0.1274
     36 H13        -6.5106    5.7190    2.0332 H         1 <0>         0.1348
     37 H14        -8.2886    4.8035    3.4698 H         1 <0>         0.1355
     38 H15        -8.5053    2.3683    3.7602 H         1 <0>         0.1369
     39 H16        -0.4828    5.8970   -2.1950 H         1 <0>         0.4173
     40 H17        -0.3270    7.4952   -1.7008 H         1 <0>         0.4228
@<TRIPOS>BOND
     1    1    2 1
     2    1   25 1
     3    1   26 1
     4    1   27 1
     5    2    7 ar
     6    2    3 ar
     7    3    4 ar
     8    3   28 1
     9    4    5 ar
    10    4   29 1
    11    5    6 ar
    12    5   21 1
    13    6    7 ar
    14    6   30 1
    15    7    8 1
    16    8    9 2
    17    8   10 am
    18   10   11 1
    19   10   31 1
    20   11   12 1
    21   11   13 1
    22   11   14 1
    23   13   32 1
    24   13   33 1
    25   13   34 1
    26   14   19 ar
    27   14   15 ar
    28   15   16 ar
    29   15   35 1
    30   16   17 ar
    31   16   36 1
    32   17   18 ar
    33   17   37 1
    34   18   19 ar
    35   18   38 1
    36   19   20 1
    37   21   22 2
    38   21   23 2
    39   21   24 1
    40   24   39 1
    41   24   40 1
