@<TRIPOS>MOLECULE
ZINC58103395
   39    40     0     0     0
SMALL
USER_CHARGES

@<TRIPOS>ATOM
      1 C1         -0.0187    1.5258    0.0104 C.3       1 <0>        -0.1289
      2 C2          0.0021   -0.0041    0.0020 C.3       1 <0>        -0.0531
      3 C3          0.7871   -0.5164   -1.1836 C.ar      1 <0>        -0.1008
      4 C4          0.6196   -0.3858   -2.5439 C.ar      1 <0>        -0.0958
      5 C5          1.5215   -0.9816   -3.4112 C.ar      1 <0>         0.0866
      6 C6          2.5875   -1.7060   -2.9042 C.ar      1 <0>        -0.1118
      7 C7          2.7558   -1.8366   -1.5414 C.ar      1 <0>        -0.1015
      8 C8          1.8523   -1.2404   -0.6639 C.ar      1 <0>         0.1476
      9 N1          1.8079   -1.2293    0.7319 N.am      1 <0>        -0.6583
     10 C9          0.7606   -0.5308    1.2016 C.2       1 <0>         0.5367
     11 O1          0.4764   -0.3552    2.3676 O.2       1 <0>        -0.4880
     12 C10         3.9192   -2.6269   -1.0001 C.3       1 <0>         0.1584
     13 H1          3.6150   -3.1443   -0.0902 H         1 <0>         0.1065
     14 C11         5.0774   -1.6783   -0.6845 C.3       1 <0>        -0.0954
     15 C12         4.6275   -0.6536    0.3588 C.3       1 <0>        -0.1496
     16 C13         6.2585   -2.4807   -0.1350 C.3       1 <0>        -0.1393
     17 C14         5.5043   -0.9521   -1.9617 C.3       1 <0>        -0.1516
     18 O2          4.3394   -3.5840   -1.9745 O.3       1 <0>        -0.5453
     19 F1          1.3616   -0.8560   -4.7468 F         1 <0>        -0.1321
     20 C15        -1.4240   -0.5580   -0.0159 C.3       1 <0>        -0.1291
     21 H2          1.0039    1.9031    0.0027 H         1 <0>         0.0623
     22 H3         -0.5459    1.8868   -0.8726 H         1 <0>         0.0756
     23 H4         -0.5289    1.8773    0.9072 H         1 <0>         0.0750
     24 H5         -0.2135    0.1797   -2.9345 H         1 <0>         0.1440
     25 H6          3.2908   -2.1706   -3.5793 H         1 <0>         0.1429
     26 H7          2.4581   -1.6749    1.2972 H         1 <0>         0.4140
     27 H8          4.3234   -1.1710    1.2687 H         1 <0>         0.0532
     28 H9          5.4527    0.0222    0.5836 H         1 <0>         0.0653
     29 H10         3.7861   -0.0819   -0.0327 H         1 <0>         0.0613
     30 H11         6.5790   -3.2108   -0.8782 H         1 <0>         0.0648
     31 H12         7.0837   -1.8049    0.0899 H         1 <0>         0.0587
     32 H13         5.9544   -2.9981    0.7749 H         1 <0>         0.0559
     33 H14         4.6629   -0.3805   -2.3532 H         1 <0>         0.0613
     34 H15         6.3295   -0.2763   -1.7368 H         1 <0>         0.0642
     35 H16         5.8248   -1.6821   -2.7049 H         1 <0>         0.0581
     36 H17         4.6246   -3.1935   -2.8119 H         1 <0>         0.3748
     37 H18        -1.9355   -0.2157   -0.9155 H         1 <0>         0.0756
     38 H19        -1.3907   -1.6475   -0.0091 H         1 <0>         0.0626
     39 H20        -1.9618   -0.2055    0.8643 H         1 <0>         0.0752
@<TRIPOS>BOND
     1    1    2 1
     2    1   21 1
     3    1   22 1
     4    1   23 1
     5    2   10 1
     6    2    3 1
     7    2   20 1
     8    3    8 ar
     9    3    4 ar
    10    4    5 ar
    11    4   24 1
    12    5    6 ar
    13    5   19 1
    14    6    7 ar
    15    6   25 1
    16    7    8 ar
    17    7   12 1
    18    8    9 1
    19    9   10 am
    20    9   26 1
    21   10   11 2
    22   12   13 1
    23   12   14 1
    24   12   18 1
    25   14   15 1
    26   14   16 1
    27   14   17 1
    28   15   27 1
    29   15   28 1
    30   15   29 1
    31   16   30 1
    32   16   31 1
    33   16   32 1
    34   17   33 1
    35   17   34 1
    36   17   35 1
    37   18   36 1
    38   20   37 1
    39   20   38 1
    40   20   39 1
