@<TRIPOS>MOLECULE
ZINC40732287
   52    54     0     0     0
SMALL
USER_CHARGES

@<TRIPOS>ATOM
      1 C1         -0.0173    1.4248    0.0099 C.3       1 <0>         0.0245
      2 O1          0.0021   -0.0041    0.0020 O.3       1 <0>        -0.3214
      3 C2          0.6058   -0.6071   -1.0557 C.ar      1 <0>         0.1367
      4 C3          1.1731    0.1608   -2.0626 C.ar      1 <0>        -0.2036
      5 C4          1.7865   -0.4545   -3.1363 C.ar      1 <0>        -0.0643
      6 C5          1.8356   -1.8347   -3.2084 C.ar      1 <0>        -0.1510
      7 C6          1.2707   -2.6020   -2.2067 C.ar      1 <0>        -0.0710
      8 C7          0.6609   -1.9913   -1.1277 C.ar      1 <0>        -0.1389
      9 C8          0.0508   -2.8283   -0.0330 C.3       1 <0>        -0.0901
     10 C9         -1.4417   -3.0200   -0.3094 C.3       1 <0>        -0.0046
     11 N1         -2.0364   -3.8359    0.7576 N.4       1 <0>        -0.5081
     12 C10        -3.4695   -4.0200    0.4923 C.3       1 <0>         0.0567
     13 C11        -4.0796   -4.8570    1.5870 C.ar      1 <0>        -0.1974
     14 C12        -4.3003   -6.2058    1.3845 C.ar      1 <0>        -0.0510
     15 C13        -4.8604   -6.9741    2.3881 C.ar      1 <0>        -0.1501
     16 C14        -5.2007   -6.3952    3.5970 C.ar      1 <0>        -0.0416
     17 C15        -4.9816   -5.0473    3.8045 C.ar      1 <0>        -0.2036
     18 C16        -4.4147   -4.2752    2.8007 C.ar      1 <0>         0.1554
     19 O2         -4.1929   -2.9499    3.0045 O.3       1 <0>        -0.3159
     20 C17        -4.5627   -2.4187    4.2785 C.3       1 <0>         0.1016
     21 C18        -4.2452   -0.9461    4.3200 C.ar      1 <0>        -0.1372
     22 C19        -3.0025   -0.5175    4.7549 C.ar      1 <0>         0.1346
     23 C20        -2.7121    0.8357    4.7926 C.ar      1 <0>        -0.1494
     24 C21        -3.6624    1.7579    4.3963 C.ar      1 <0>        -0.0583
     25 C22        -4.9028    1.3300    3.9622 C.ar      1 <0>        -0.1195
     26 C23        -5.1928   -0.0224    3.9185 C.ar      1 <0>         0.0110
     27 Cl1        -6.7487   -0.5591    3.3663 Cl        1 <0>        -0.0399
     28 F1         -2.0741   -1.4191    5.1426 F         1 <0>        -0.1274
     29 H1          1.0053    1.8021    0.0021 H         1 <0>         0.0613
     30 H2         -0.5445    1.7859   -0.8732 H         1 <0>         0.0601
     31 H3         -0.5275    1.7763    0.9067 H         1 <0>         0.1039
     32 H4          1.1347    1.2387   -2.0069 H         1 <0>         0.1340
     33 H5          2.2279    0.1427   -3.9204 H         1 <0>         0.1322
     34 H6          2.3157   -2.3139   -4.0487 H         1 <0>         0.1315
     35 H7          1.3100   -3.6796   -2.2654 H         1 <0>         0.1324
     36 H8          0.5425   -3.8006   -0.0023 H         1 <0>         0.0939
     37 H9          0.1812   -2.3247    0.9248 H         1 <0>         0.0966
     38 H10        -1.9334   -2.0477   -0.3402 H         1 <0>         0.1320
     39 H11        -1.5721   -3.5236   -1.2673 H         1 <0>         0.1321
     40 H12        -1.5813   -4.7360    0.7861 H         1 <0>         0.4250
     41 H13        -3.9612   -3.0477    0.4615 H         1 <0>         0.1373
     42 H14        -3.5999   -4.5236   -0.4656 H         1 <0>         0.1376
     43 H15        -4.0355   -6.6602    0.4412 H         1 <0>         0.1403
     44 H16        -5.0329   -8.0281    2.2276 H         1 <0>         0.1385
     45 H17        -5.6384   -6.9974    4.3793 H         1 <0>         0.1390
     46 H18        -5.2475   -4.5957    4.7488 H         1 <0>         0.1391
     47 H19        -5.6313   -2.5646    4.4367 H         1 <0>         0.0913
     48 H20        -4.0059   -2.9327    5.0620 H         1 <0>         0.0869
     49 H21        -1.7431    1.1707    5.1321 H         1 <0>         0.1496
     50 H22        -3.4356    2.8134    4.4262 H         1 <0>         0.1514
     51 H23        -5.6447    2.0514    3.6531 H         1 <0>         0.1489
     52 H24        -1.9157   -3.3698    1.6443 H         1 <0>         0.4285
@<TRIPOS>BOND
     1    1    2 1
     2    1   29 1
     3    1   30 1
     4    1   31 1
     5    2    3 1
     6    3    8 ar
     7    3    4 ar
     8    4    5 ar
     9    4   32 1
    10    5    6 ar
    11    5   33 1
    12    6    7 ar
    13    6   34 1
    14    7    8 ar
    15    7   35 1
    16    8    9 1
    17    9   10 1
    18    9   36 1
    19    9   37 1
    20   10   11 1
    21   10   38 1
    22   10   39 1
    23   11   12 1
    24   11   40 1
    25   11   52 1
    26   12   13 1
    27   12   41 1
    28   12   42 1
    29   13   18 ar
    30   13   14 ar
    31   14   15 ar
    32   14   43 1
    33   15   16 ar
    34   15   44 1
    35   16   17 ar
    36   16   45 1
    37   17   18 ar
    38   17   46 1
    39   18   19 1
    40   19   20 1
    41   20   21 1
    42   20   47 1
    43   20   48 1
    44   21   26 ar
    45   21   22 ar
    46   22   23 ar
    47   22   28 1
    48   23   24 ar
    49   23   49 1
    50   24   25 ar
    51   24   50 1
    52   25   26 ar
    53   25   51 1
    54   26   27 1
