@<TRIPOS>MOLECULE
ZINC43415471
   38    38     0     0     0
SMALL
USER_CHARGES

@<TRIPOS>ATOM
      1 C1         -0.0187    1.5258    0.0104 C.3       1 <0>        -0.1540
      2 C2          0.0021   -0.0041    0.0020 C.3       1 <0>        -0.0933
      3 C3          0.7182   -0.4975   -1.2568 C.3       1 <0>        -0.1485
      4 C4          0.7421   -0.5109    1.2415 C.3       1 <0>        -0.1279
      5 C5         -0.0416   -0.1236    2.4973 C.3       1 <0>         0.1182
      6 N1          0.6670   -0.6089    3.6841 N.am      1 <0>        -0.7296
      7 C6          0.1592   -0.3821    4.9118 C.2       1 <0>         0.5156
      8 O1         -0.8843    0.2238    5.0340 O.2       1 <0>        -0.5082
      9 C7          0.8881   -0.8813    6.1327 C.3       1 <0>         0.0386
     10 O2          0.1561   -0.5196    7.3055 O.3       1 <0>        -0.2911
     11 C8          0.6805   -0.8972    8.5008 C.ar      1 <0>         0.0686
     12 C9          0.3419   -2.1346    9.0499 C.ar      1 <0>         0.2156
     13 C10         0.8754   -2.5200   10.2663 C.ar      1 <0>        -0.1263
     14 C11         1.7531   -1.6676   10.9421 C.ar      1 <0>         0.0291
     15 C12         2.0873   -0.4305   10.3862 C.ar      1 <0>        -0.0862
     16 C13         1.5559   -0.0541    9.1700 C.ar      1 <0>        -0.0763
     17 I1          2.0657    1.7986    8.3355 I         1 <0>        -0.0078
     18 C14         2.3080   -2.0615   12.2021 C.1       1 <0>         0.2505
     19 N2          2.7483   -2.3740   13.2016 N.1       1 <0>        -0.3983
     20 N3         -0.5378   -2.9852    8.3701 N.pl3     1 <0>        -0.8619
     21 H1          1.0039    1.9031    0.0027 H         1 <0>         0.0557
     22 H2         -0.5459    1.8868   -0.8726 H         1 <0>         0.0569
     23 H3         -0.5289    1.8773    0.9072 H         1 <0>         0.0583
     24 H4         -1.0205   -0.3814    0.0098 H         1 <0>         0.0736
     25 H5          1.7408   -0.1202   -1.2645 H         1 <0>         0.0554
     26 H6          0.7330   -1.5874   -1.2628 H         1 <0>         0.0550
     27 H7          0.1910   -0.1364   -2.1398 H         1 <0>         0.0574
     28 H8          0.8346   -1.5958    1.1912 H         1 <0>         0.0703
     29 H9          1.7350   -0.0630    1.2804 H         1 <0>         0.0711
     30 H10        -0.1341    0.9613    2.5476 H         1 <0>         0.0735
     31 H11        -1.0345   -0.5716    2.4584 H         1 <0>         0.0695
     32 H12         1.5016   -1.0935    3.5864 H         1 <0>         0.4013
     33 H13         0.9806   -1.9662    6.0823 H         1 <0>         0.0854
     34 H14         1.8810   -0.4334    6.1715 H         1 <0>         0.0876
     35 H15         0.6143   -3.4772   10.6931 H         1 <0>         0.1448
     36 H16         2.7650    0.2299   10.9068 H         1 <0>         0.1435
     37 H17        -0.9121   -2.7146    7.5172 H         1 <0>         0.4076
     38 H18        -0.7730   -3.8453    8.7520 H         1 <0>         0.4062
@<TRIPOS>BOND
     1    1    2 1
     2    1   21 1
     3    1   22 1
     4    1   23 1
     5    2    3 1
     6    2    4 1
     7    2   24 1
     8    3   25 1
     9    3   26 1
    10    3   27 1
    11    4    5 1
    12    4   28 1
    13    4   29 1
    14    5    6 1
    15    5   30 1
    16    5   31 1
    17    6    7 am
    18    6   32 1
    19    7    8 2
    20    7    9 1
    21    9   10 1
    22    9   33 1
    23    9   34 1
    24   10   11 1
    25   11   16 ar
    26   11   12 ar
    27   12   13 ar
    28   12   20 1
    29   13   14 ar
    30   13   35 1
    31   14   15 ar
    32   14   18 1
    33   15   16 ar
    34   15   36 1
    35   16   17 1
    36   18   19 3
    37   20   37 1
    38   20   38 1
