@<TRIPOS>MOLECULE
ZINC30135551
   44    47     0     0     0
SMALL
USER_CHARGES
N-(1-adamantylmethyl)-4-chloro-N-methyl-1H-pyrrole-2-carboxamide
@<TRIPOS>ATOM
      1 C1          1.1042    2.3996    0.1521 C.3       1 <0>         0.0248
      2 N1         -0.1110    1.5845    0.0812 N.am      1 <0>        -0.6124
      3 C2         -0.0319    0.1337    0.2692 C.3       1 <0>         0.1252
      4 C3         -0.2032   -0.1983    1.7529 C.3       1 <0>        -0.0675
      5 C4          0.9054    0.4816    2.5589 C.3       1 <0>        -0.1050
      6 C5          0.7341    0.1496    4.0426 C.3       1 <0>        -0.0854
      7 C6          0.8167   -1.3655    4.2390 C.3       1 <0>        -0.1084
      8 C7         -0.2918   -2.0454    3.4329 C.3       1 <0>        -0.0842
      9 C8         -0.1206   -1.7134    1.9493 C.3       1 <0>        -0.1014
     10 C9         -1.6543   -1.5423    3.9142 C.3       1 <0>        -0.1090
     11 C10        -1.7368   -0.0272    3.7178 C.3       1 <0>        -0.0887
     12 C11        -0.6283    0.6527    4.5239 C.3       1 <0>        -0.1079
     13 C12        -1.5656    0.3048    2.2341 C.3       1 <0>        -0.0910
     14 C13        -1.3009    2.1685   -0.1626 C.2       1 <0>         0.5917
     15 O1         -2.3230    1.5095   -0.1167 O.2       1 <0>        -0.5122
     16 C14        -1.3641    3.5984   -0.4831 C.2       1 <0>        -0.0563
     17 C15        -2.5097    4.3556   -0.6081 C.2       1 <0>        -0.0939
     18 C16        -2.1089    5.6599   -0.9167 C.2       1 <0>        -0.1311
     19 C17        -0.7554    5.6742   -0.9814 C.2       1 <0>         0.0440
     20 N2         -0.2909    4.4270   -0.7198 N.pl3     1 <0>        -0.5607
     21 H1          0.7329    4.0271   -0.6758 H         1 <0>         0.4531
     22 Cl1        -3.1591    7.0176   -1.1759 Cl        1 <0>        -0.0479
     23 H2          0.8470    3.4563   -0.0128 H         1 <0>         0.1086
     24 H3          1.8127    2.0696   -0.6219 H         1 <0>         0.0773
     25 H4          1.5652    2.2849    1.1442 H         1 <0>         0.0898
     26 H5         -0.8289   -0.3551   -0.3104 H         1 <0>         0.0891
     27 H6          0.9476   -0.2280   -0.0768 H         1 <0>         0.0798
     28 H7          1.8849    0.1198    2.2129 H         1 <0>         0.0602
     29 H8          0.8461    1.5709    2.4177 H         1 <0>         0.0644
     30 H9          1.5311    0.6385    4.6221 H         1 <0>         0.0673
     31 H10         1.7962   -1.7272    3.8930 H         1 <0>         0.0607
     32 H11         0.6935   -1.6042    5.3057 H         1 <0>         0.0614
     33 H12        -0.2323   -3.1347    3.5740 H         1 <0>         0.0699
     34 H13        -0.9176   -2.2022    1.3698 H         1 <0>         0.0654
     35 H14         0.8589   -2.0752    1.6033 H         1 <0>         0.0623
     36 H15        -2.4513   -2.0312    3.3347 H         1 <0>         0.0622
     37 H16        -1.7775   -1.7811    4.9809 H         1 <0>         0.0603
     38 H17        -2.7163    0.3346    4.0638 H         1 <0>         0.0676
     39 H18        -0.7514    0.4139    5.5906 H         1 <0>         0.0604
     40 H19        -0.6877    1.7420    4.3828 H         1 <0>         0.0579
     41 H20        -1.6250    1.3941    2.0928 H         1 <0>         0.0589
     42 H21        -2.3626   -0.1841    1.6546 H         1 <0>         0.0695
     43 H22        -3.5251    4.0078   -0.4880 H         1 <0>         0.1535
     44 H23        -0.1461    6.5375   -1.2049 H         1 <0>         0.1778
@<TRIPOS>BOND
     1    1    2 1
     2    1   23 1
     3    1   24 1
     4    1   25 1
     5    2    3 1
     6    2   14 am
     7    3    4 1
     8    3   26 1
     9    3   27 1
    10    4    9 1
    11    4   13 1
    12    4    5 1
    13    5    6 1
    14    5   28 1
    15    5   29 1
    16    6   12 1
    17    6    7 1
    18    6   30 1
    19    7    8 1
    20    7   31 1
    21    7   32 1
    22    8    9 1
    23    8   10 1
    24    8   33 1
    25    9   34 1
    26    9   35 1
    27   10   11 1
    28   10   36 1
    29   10   37 1
    30   11   12 1
    31   11   13 1
    32   11   38 1
    33   12   39 1
    34   12   40 1
    35   13   41 1
    36   13   42 1
    37   14   15 2
    38   14   16 1
    39   16   20 1
    40   16   17 2
    41   17   18 1
    42   17   43 1
    43   18   19 2
    44   18   22 1
    45   19   20 1
    46   19   44 1
    47   20   21 1
