@<TRIPOS>MOLECULE
ZINC48951143
   32    34     0     0     0
SMALL
USER_CHARGES

@<TRIPOS>ATOM
      1 C1          1.1258   -0.5346   -0.5941 C.ar      1 <0>        -0.0981
      2 C2          2.3164    0.1672   -0.5838 C.ar      1 <0>        -0.1061
      3 C3          2.3887    1.3972    0.0455 C.ar      1 <0>        -0.0347
      4 C4          1.2689    1.9239    0.6642 C.ar      1 <0>        -0.1061
      5 C5          0.0788    1.2212    0.6532 C.ar      1 <0>        -0.0900
      6 C6          0.0072   -0.0078    0.0243 C.ar      1 <0>        -0.0686
      7 C7         -1.2908   -0.7733    0.0123 C.3       1 <0>         0.1907
      8 C8         -1.6070   -1.4287   -1.3424 C.3       1 <0>        -0.1329
      9 C9         -2.1122   -2.6443   -0.5476 C.3       1 <0>        -0.1420
     10 C10        -1.1723   -2.1959    0.5840 C.3       1 <0>        -0.1291
     11 N1         -2.4080   -0.0075    0.5708 N.am      1 <0>        -0.7054
     12 C11        -2.8472    1.1002   -0.0589 C.2       1 <0>         0.6086
     13 O1         -2.3794    1.4126   -1.1382 O.2       1 <0>        -0.4840
     14 C12        -3.8878    1.9284    0.5559 C.2       1 <0>        -0.2698
     15 C13        -4.4866    3.0923    0.0913 C.2       1 <0>         0.1868
     16 N2         -5.4011    3.6228    0.8665 N.2       1 <0>        -0.5158
     17 C14        -5.7294    3.0811    2.0166 C.2       1 <0>         0.0653
     18 S1         -4.7457    1.7187    2.1082 S.3       1 <0>         0.1925
     19 Cl1        -4.0484    3.8047   -1.4300 Cl        1 <0>         0.0282
     20 Cl2         3.8840    2.2789    0.0594 Cl        1 <0>        -0.0694
     21 H1          1.0680   -1.4927   -1.0892 H         1 <0>         0.1343
     22 H2          3.1903   -0.2447   -1.0666 H         1 <0>         0.1356
     23 H3          1.3249    2.8839    1.1559 H         1 <0>         0.1321
     24 H4         -0.7953    1.6321    1.1364 H         1 <0>         0.1215
     25 H5         -2.3898   -0.9174   -1.9028 H         1 <0>         0.0823
     26 H6         -0.7221   -1.6372   -1.9437 H         1 <0>         0.0958
     27 H7         -3.1688   -2.5866   -0.2862 H         1 <0>         0.0827
     28 H8         -1.8364   -3.6011   -0.9909 H         1 <0>         0.0771
     29 H9         -0.1686   -2.6142    0.5094 H         1 <0>         0.1025
     30 H10        -1.6042   -2.3040    1.5789 H         1 <0>         0.0782
     31 H11        -2.8316   -0.2978    1.3937 H         1 <0>         0.4030
     32 H12        -6.4612    3.4256    2.7323 H         1 <0>         0.2351
@<TRIPOS>BOND
     1    1    6 ar
     2    1    2 ar
     3    1   21 1
     4    2    3 ar
     5    2   22 1
     6    3    4 ar
     7    3   20 1
     8    4    5 ar
     9    4   23 1
    10    5    6 ar
    11    5   24 1
    12    6    7 1
    13    7   10 1
    14    7    8 1
    15    7   11 1
    16    8    9 1
    17    8   25 1
    18    8   26 1
    19    9   10 1
    20    9   27 1
    21    9   28 1
    22   10   29 1
    23   10   30 1
    24   11   12 am
    25   11   31 1
    26   12   13 2
    27   12   14 1
    28   14   18 1
    29   14   15 2
    30   15   16 1
    31   15   19 1
    32   16   17 2
    33   17   18 1
    34   17   32 1
