@<TRIPOS>MOLECULE
ZINC38837445
   55    57     0     0     0
SMALL
USER_CHARGES

@<TRIPOS>ATOM
      1 C1         -0.0167    1.3780    0.0096 C.ar      1 <0>        -0.1134
      2 C2          1.1709    2.0861    0.0021 C.ar      1 <0>        -0.0961
      3 C3          2.3773    1.4123   -0.0135 C.ar      1 <0>        -0.1101
      4 C4          2.3967    0.0287   -0.0210 C.ar      1 <0>        -0.0184
      5 C5          1.2083   -0.6792   -0.0130 C.ar      1 <0>        -0.0747
      6 C6          0.0021   -0.0041    0.0020 C.ar      1 <0>        -0.0876
      7 C7          1.2286   -2.1860   -0.0218 C.3       1 <0>        -0.0497
      8 S1          1.2540   -2.8003    1.6849 S.3       1 <0>        -0.2126
      9 C8          1.2765   -4.6048    1.5015 C.3       1 <0>        -0.1150
     10 C9          1.2992   -5.2578    2.8849 C.3       1 <0>         0.1353
     11 N1          1.3174   -6.7152    2.7368 N.am      1 <0>        -0.7231
     12 C10         1.3390   -7.5034    3.8298 C.2       1 <0>         0.5175
     13 O1          1.3434   -7.0062    4.9360 O.2       1 <0>        -0.5199
     14 C11         1.3577   -9.0026    3.6775 C.3       1 <0>        -0.1213
     15 C12         2.6107   -9.4231    2.9038 C.3       1 <0>        -0.1396
     16 C13         2.6642  -10.9502    2.8217 C.3       1 <0>        -0.0057
     17 N2          2.7107  -11.5152    4.1757 N.4       1 <0>        -0.3822
     18 C14         1.4796  -11.1761    4.8994 C.3       1 <0>        -0.0163
     19 C15         1.3804   -9.6578    5.0615 C.3       1 <0>        -0.1255
     20 C16         2.8406  -12.9760    4.0908 C.3       1 <0>         0.0332
     21 C17         3.0118  -13.5463    5.4752 C.ar      1 <0>        -0.1455
     22 C18         4.2784  -13.6915    6.0120 C.ar      1 <0>        -0.0081
     23 C19         4.4349  -14.2152    7.2830 C.ar      1 <0>        -0.0944
     24 C20         3.3261  -14.5938    8.0162 C.ar      1 <0>        -0.0567
     25 C21         2.0602  -14.4490    7.4803 C.ar      1 <0>        -0.0948
     26 C22         1.9020  -13.9197    6.2118 C.ar      1 <0>        -0.0115
     27 Cl1         0.3116  -13.7307    5.5420 Cl        1 <0>        -0.0365
     28 Cl2         5.6713  -13.2171    5.0908 Cl        1 <0>        -0.0361
     29 Cl3         3.9119   -0.8184   -0.0411 Cl        1 <0>        -0.0608
     30 H1         -0.9592    1.9049    0.0259 H         1 <0>         0.1345
     31 H2          1.1556    3.1659    0.0080 H         1 <0>         0.1369
     32 H3          3.3048    1.9655   -0.0201 H         1 <0>         0.1380
     33 H4         -0.9258   -0.5566    0.0079 H         1 <0>         0.1346
     34 H5          0.3384   -2.5584   -0.5287 H         1 <0>         0.0964
     35 H6          2.1181   -2.5344   -0.5466 H         1 <0>         0.0979
     36 H7          0.3853   -4.9264    0.9625 H         1 <0>         0.0894
     37 H8          2.1650   -4.9024    0.9446 H         1 <0>         0.0887
     38 H9          2.1904   -4.9363    3.4239 H         1 <0>         0.0834
     39 H10         0.4106   -4.9603    3.4418 H         1 <0>         0.0837
     40 H11         1.3139   -7.1129    1.8521 H         1 <0>         0.4016
     41 H12         0.4683   -9.3251    3.1361 H         1 <0>         0.1184
     42 H13         2.5744   -9.0056    1.8976 H         1 <0>         0.1193
     43 H14         3.4975   -9.0550    3.4196 H         1 <0>         0.0975
     44 H15         1.7771  -11.3172    2.3056 H         1 <0>         0.1361
     45 H16         3.5550  -11.2529    2.2714 H         1 <0>         0.1386
     46 H17         0.6177  -11.5383    4.3390 H         1 <0>         0.1335
     47 H18         1.4958  -11.6457    5.8829 H         1 <0>         0.1321
     48 H19         2.2418   -9.2945    5.6220 H         1 <0>         0.0985
     49 H20         0.4648   -9.4080    5.5975 H         1 <0>         0.1223
     50 H21         1.9439  -13.3945    3.6338 H         1 <0>         0.1464
     51 H22         3.7098  -13.2289    3.4836 H         1 <0>         0.1469
     52 H23         5.4238  -14.3286    7.7022 H         1 <0>         0.1566
     53 H24         3.4488  -15.0032    9.0080 H         1 <0>         0.1592
     54 H25         1.1942  -14.7454    8.0536 H         1 <0>         0.1568
     55 H26         3.5051  -11.1371    4.6697 H         1 <0>         0.4223
@<TRIPOS>BOND
     1    1    6 ar
     2    1    2 ar
     3    1   30 1
     4    2    3 ar
     5    2   31 1
     6    3    4 ar
     7    3   32 1
     8    4    5 ar
     9    4   29 1
    10    5    6 ar
    11    5    7 1
    12    6   33 1
    13    7    8 1
    14    7   34 1
    15    7   35 1
    16    8    9 1
    17    9   10 1
    18    9   36 1
    19    9   37 1
    20   10   11 1
    21   10   38 1
    22   10   39 1
    23   11   12 am
    24   11   40 1
    25   12   13 2
    26   12   14 1
    27   14   19 1
    28   14   15 1
    29   14   41 1
    30   15   16 1
    31   15   42 1
    32   15   43 1
    33   16   17 1
    34   16   44 1
    35   16   45 1
    36   17   18 1
    37   17   20 1
    38   17   55 1
    39   18   19 1
    40   18   46 1
    41   18   47 1
    42   19   48 1
    43   19   49 1
    44   20   21 1
    45   20   50 1
    46   20   51 1
    47   21   26 ar
    48   21   22 ar
    49   22   23 ar
    50   22   28 1
    51   23   24 ar
    52   23   52 1
    53   24   25 ar
    54   24   53 1
    55   25   26 ar
    56   25   54 1
    57   26   27 1
