@<TRIPOS>MOLECULE
ZINC38971398
   50    53     0     0     0
SMALL
USER_CHARGES

@<TRIPOS>ATOM
      1 C1         -0.7230    1.1707   -0.7184 C.3       1 <0>        -0.1315
      2 C2         -0.5724   -0.3257   -0.6228 C.ar      1 <0>        -0.0117
      3 C3         -0.4424   -1.0821   -1.7725 C.ar      1 <0>        -0.1386
      4 C4         -0.3042   -2.4547   -1.6849 C.ar      1 <0>        -0.0116
      5 C5         -0.2955   -3.0709   -0.4475 C.ar      1 <0>        -0.6632
      6 C6         -0.4246   -2.3144    0.7023 C.ar      1 <0>        -0.0115
      7 C7         -0.5585   -0.9413    0.6148 C.ar      1 <0>        -0.1382
      8 S1         -0.1205   -4.8206   -0.3358 S.o2      1 <0>         2.6261
      9 O1         -0.6900   -5.2072    0.9074 O.2       1 <0>        -0.9323
     10 O2         -0.5652   -5.3532   -1.5759 O.2       1 <0>        -0.9323
     11 N1          1.5002   -5.1452   -0.2352 N.2       1 <0>        -0.8253
     12 C8          1.9125   -6.3749   -0.1422 C.2       1 <0>         0.4394
     13 C9          3.3894   -6.6835   -0.0435 C.3       1 <0>         0.3099
     14 H1          3.7807   -6.1616    0.8298 H         1 <0>         0.1882
     15 N2          3.7909   -8.0953    0.0600 N.pl3     1 <0>        -0.5156
     16 C10         2.8600   -9.0083    0.0616 C.ar      1 <0>         0.3332
     17 C11         3.2086  -10.4332    0.1629 C.ar      1 <0>        -0.2034
     18 C12         2.2163  -11.3501    0.1618 C.ar      1 <0>         0.0532
     19 C13         0.8654  -10.9765    0.0666 C.ar      1 <0>        -0.0637
     20 C14         0.4685   -9.6888   -0.0294 C.ar      1 <0>        -0.0837
     21 C15         1.4256   -8.6425   -0.0377 C.ar      1 <0>         0.2872
     22 N3          1.0328   -7.3890   -0.1268 N.2       1 <0>        -0.4536
     23 N4          4.0442   -6.1188   -1.2261 N.pl3     1 <0>        -0.7149
     24 C16         5.2516   -5.4292   -1.0934 C.ar      1 <0>         0.1872
     25 C17         5.8970   -5.3862    0.1359 C.ar      1 <0>        -0.1829
     26 C18         7.0915   -4.7029    0.2636 C.ar      1 <0>         0.0046
     27 C19         7.6440   -4.0622   -0.8320 C.ar      1 <0>        -0.1287
     28 C20         7.0034   -4.1037   -2.0564 C.ar      1 <0>        -0.0574
     29 C21         5.8122   -4.7898   -2.1917 C.ar      1 <0>        -0.1168
     30 C22         5.1184   -4.8399   -3.5286 C.3       1 <0>        -0.1169
     31 Cl1         7.8992   -4.6476    1.7992 Cl        1 <0>        -0.0491
     32 H2          0.2621    1.6369   -0.7004 H         1 <0>         0.0854
     33 H3         -1.2290    1.4262   -1.6494 H         1 <0>         0.0784
     34 H4         -1.3111    1.5313    0.1256 H         1 <0>         0.0785
     35 H5         -0.4492   -0.6007   -2.7393 H         1 <0>         0.1405
     36 H6         -0.2033   -3.0458   -2.5831 H         1 <0>         0.1411
     37 H7         -0.4182   -2.7958    1.6690 H         1 <0>         0.1419
     38 H8         -0.6556   -0.3499    1.5133 H         1 <0>         0.1409
     39 H9          4.2409  -10.7418    0.2367 H         1 <0>         0.1855
     40 H10         2.4682  -12.3977    0.2357 H         1 <0>         0.1817
     41 H11         0.1127  -11.7511    0.0699 H         1 <0>         0.1782
     42 H12        -0.5835   -9.4550   -0.1003 H         1 <0>         0.1886
     43 H13         3.6393   -6.2238   -2.1012 H         1 <0>         0.4205
     44 H14         5.4658   -5.8858    0.9908 H         1 <0>         0.1265
     45 H15         8.5774   -3.5285   -0.7300 H         1 <0>         0.1434
     46 H16         7.4371   -3.6028   -2.9092 H         1 <0>         0.1452
     47 H17         4.4353   -3.9949   -3.6153 H         1 <0>         0.0805
     48 H18         5.8607   -4.7902   -4.3252 H         1 <0>         0.0827
     49 H19         4.5574   -5.7707   -3.6122 H         1 <0>         0.0574
     50 H20         4.7269   -8.3412    0.1251 H         1 <0>         0.4570
@<TRIPOS>BOND
     1    1    2 1
     2    1   32 1
     3    1   33 1
     4    1   34 1
     5    2    7 ar
     6    2    3 ar
     7    3    4 ar
     8    3   35 1
     9    4    5 ar
    10    4   36 1
    11    5    6 ar
    12    5    8 1
    13    6    7 ar
    14    6   37 1
    15    7   38 1
    16    8    9 2
    17    8   10 2
    18    8   11 1
    19   11   12 2
    20   12   22 1
    21   12   13 1
    22   13   14 1
    23   13   15 1
    24   13   23 1
    25   15   16 2
    26   15   50 1
    27   16   21 ar
    28   16   17 ar
    29   17   18 ar
    30   17   39 1
    31   18   19 ar
    32   18   40 1
    33   19   20 ar
    34   19   41 1
    35   20   21 ar
    36   20   42 1
    37   21   22 2
    38   23   24 1
    39   23   43 1
    40   24   29 ar
    41   24   25 ar
    42   25   26 ar
    43   25   44 1
    44   26   27 ar
    45   26   31 1
    46   27   28 ar
    47   27   45 1
    48   28   29 ar
    49   28   46 1
    50   29   30 1
    51   30   47 1
    52   30   48 1
    53   30   49 1
