@<TRIPOS>MOLECULE
ZINC19903677
   35    37     0     0     0
SMALL
USER_CHARGES
N-[(1S)-1-(2-fluorophenyl)ethyl]quinolin-8-amine
@<TRIPOS>ATOM
      1 C1          2.8633    4.4028   -1.3984 C.3       1 <0>        -0.1633
      2 C2          2.4530    3.9350   -0.0007 C.3       1 <0>         0.1905
      3 H1          2.3023    4.7907    0.6739 H         1 <0>         0.0935
      4 C3          1.1835    3.1283   -0.0935 C.ar      1 <0>        -0.1233
      5 C4          1.2458    1.7536   -0.2231 C.ar      1 <0>        -0.0858
      6 C5          0.0815    1.0134   -0.3082 C.ar      1 <0>        -0.1226
      7 C6         -1.1465    1.6476   -0.2692 C.ar      1 <0>        -0.0902
      8 C7         -1.2114    3.0211   -0.1335 C.ar      1 <0>        -0.1486
      9 C8         -0.0456    3.7638   -0.0486 C.ar      1 <0>         0.1064
     10 F1         -0.1078    5.1074    0.0776 F         1 <0>        -0.1353
     11 N1          3.5179    3.1058    0.5689 N.pl3     1 <0>        -0.7335
     12 C9          4.5839    3.7039    1.2396 C.ar      1 <0>         0.2572
     13 C10         4.6439    5.0749    1.3649 C.ar      1 <0>        -0.2231
     14 C11         5.6989    5.6840    2.0376 C.ar      1 <0>        -0.0512
     15 C12         6.7059    4.9436    2.5788 C.ar      1 <0>        -0.1726
     16 C13         6.6841    3.5441    2.4669 C.ar      1 <0>        -0.0554
     17 C14         5.6135    2.9097    1.7909 C.ar      1 <0>         0.0767
     18 N2          5.5894    1.5787    1.6834 N.ar      1 <0>        -0.4678
     19 C15         6.5422    0.8362    2.1926 C.ar      1 <0>         0.1091
     20 C16         7.6239    1.3954    2.8699 C.ar      1 <0>        -0.1626
     21 C17         7.7096    2.7505    3.0158 C.ar      1 <0>        -0.0717
     22 H2          3.7900    4.9916   -1.3306 H         1 <0>         0.0685
     23 H3          2.0637    5.0254   -1.8261 H         1 <0>         0.0681
     24 H4          3.0313    3.5277   -2.0433 H         1 <0>         0.0639
     25 H5          2.2045    1.2576   -0.2581 H         1 <0>         0.1311
     26 H6          0.1312   -0.0606   -0.4098 H         1 <0>         0.1329
     27 H7         -2.0555    1.0686   -0.3403 H         1 <0>         0.1352
     28 H8         -2.1708    3.5158   -0.0986 H         1 <0>         0.1384
     29 H9          3.4765    2.0113    0.4675 H         1 <0>         0.4281
     30 H10         3.8598    5.6840    0.9402 H         1 <0>         0.1266
     31 H11         5.7224    6.7601    2.1272 H         1 <0>         0.1245
     32 H12         7.5199    5.4322    3.0936 H         1 <0>         0.1248
     33 H13         6.4870   -0.2370    2.0849 H         1 <0>         0.1573
     34 H14         8.3935    0.7578    3.2793 H         1 <0>         0.1361
     35 H15         8.5411    3.2010    3.5374 H         1 <0>         0.1381
@<TRIPOS>BOND
     1    1    2 1
     2    1   22 1
     3    1   23 1
     4    1   24 1
     5    2    3 1
     6    2    4 1
     7    2   11 1
     8    4    9 ar
     9    4    5 ar
    10    5    6 ar
    11    5   25 1
    12    6    7 ar
    13    6   26 1
    14    7    8 ar
    15    7   27 1
    16    8    9 ar
    17    8   28 1
    18    9   10 1
    19   11   12 1
    20   11   29 1
    21   12   17 ar
    22   12   13 ar
    23   13   14 ar
    24   13   30 1
    25   14   15 ar
    26   14   31 1
    27   15   16 ar
    28   15   32 1
    29   16   21 ar
    30   16   17 ar
    31   17   18 ar
    32   18   19 ar
    33   19   20 ar
    34   19   33 1
    35   20   21 ar
    36   20   34 1
    37   21   35 1
