@<TRIPOS>MOLECULE
ZINC53587529
   39    40     0     0     0
SMALL
USER_CHARGES

@<TRIPOS>ATOM
      1 C1         -0.0187    1.5258    0.0104 C.3       1 <0>        -0.1955
      2 C2          0.0021   -0.0041    0.0020 C.3       1 <0>         0.0695
      3 H1         -1.0205   -0.3814    0.0098 H         1 <0>         0.0873
      4 C3          0.7182   -0.4975   -1.2568 C.3       1 <0>        -0.0055
      5 N1          0.6338   -1.9624   -1.3257 N.4       1 <0>        -0.5076
      6 C4          1.3214   -2.4362   -2.5343 C.3       1 <0>         0.0233
      7 C5          2.8149   -2.1213   -2.4280 C.3       1 <0>        -0.1852
      8 C6          1.1274   -3.9476   -2.6722 C.3       1 <0>        -0.1831
      9 O1          0.6932   -0.4774    1.1597 O.3       1 <0>        -0.3098
     10 C7         -0.0511   -0.6993    2.2748 C.ar      1 <0>         0.1474
     11 C8         -0.2491    0.3113    3.1883 C.ar      1 <0>        -0.0819
     12 C9         -1.0100    0.0983    4.3353 C.ar      1 <0>        -0.0537
     13 C10        -1.5776   -1.1151    4.5836 C.ar      1 <0>        -0.0597
     14 C11        -1.3976   -2.1707    3.6744 C.ar      1 <0>        -0.0654
     15 C12        -0.6306   -1.9646    2.5012 C.ar      1 <0>         0.1238
     16 N2         -0.4618   -2.9652    1.6318 N.ar      1 <0>        -0.4950
     17 C13        -0.9980   -4.1437    1.8365 C.ar      1 <0>         0.1481
     18 C14        -1.7683   -4.4119    2.9661 C.ar      1 <0>        -0.1540
     19 C15        -1.9698   -3.4367    3.9009 C.ar      1 <0>        -0.0456
     20 Br1        -2.6051   -1.3780    6.1492 Br        1 <0>         0.0007
     21 Br2         0.5224    2.0104    2.8822 Br        1 <0>         0.0086
     22 H2          1.0039    1.9031    0.0027 H         1 <0>         0.0834
     23 H3         -0.5459    1.8868   -0.8726 H         1 <0>         0.0821
     24 H4         -0.5289    1.8773    0.9072 H         1 <0>         0.0911
     25 H5          0.2444   -0.0644   -2.1377 H         1 <0>         0.1495
     26 H6          1.7648   -0.1951   -1.2215 H         1 <0>         0.1455
     27 H7          1.0724   -2.3633   -0.5103 H         1 <0>         0.4361
     28 H8          0.9059   -1.9353   -3.4087 H         1 <0>         0.1384
     29 H9          3.2304   -2.6222   -1.5536 H         1 <0>         0.0824
     30 H10         3.3251   -2.4729   -3.3248 H         1 <0>         0.1062
     31 H11         2.9531   -1.0446   -2.3298 H         1 <0>         0.0812
     32 H12         0.0634   -4.1719   -2.7480 H         1 <0>         0.0809
     33 H13         1.6376   -4.2991   -3.5690 H         1 <0>         0.1067
     34 H14         1.5429   -4.4485   -1.7978 H         1 <0>         0.0822
     35 H15        -1.1517    0.9062    5.0379 H         1 <0>         0.1601
     36 H16        -0.8387   -4.9272    1.1105 H         1 <0>         0.1721
     37 H17        -2.1977   -5.3928    3.1070 H         1 <0>         0.1539
     38 H18        -2.5637   -3.6275    4.7826 H         1 <0>         0.1567
     39 H19        -0.3350   -2.2424   -1.3584 H         1 <0>         0.4249
@<TRIPOS>BOND
     1    1    2 1
     2    1   22 1
     3    1   23 1
     4    1   24 1
     5    2    3 1
     6    2    4 1
     7    2    9 1
     8    4    5 1
     9    4   25 1
    10    4   26 1
    11    5    6 1
    12    5   27 1
    13    5   39 1
    14    6    7 1
    15    6    8 1
    16    6   28 1
    17    7   29 1
    18    7   30 1
    19    7   31 1
    20    8   32 1
    21    8   33 1
    22    8   34 1
    23    9   10 1
    24   10   15 ar
    25   10   11 ar
    26   11   12 ar
    27   11   21 1
    28   12   13 ar
    29   12   35 1
    30   13   14 ar
    31   13   20 1
    32   14   19 ar
    33   14   15 ar
    34   15   16 ar
    35   16   17 ar
    36   17   18 ar
    37   17   36 1
    38   18   19 ar
    39   18   37 1
    40   19   38 1
