@<TRIPOS>MOLECULE
ZINC50866728
   38    39     0     0     0
SMALL
USER_CHARGES

@<TRIPOS>ATOM
      1 C1         -0.0187    1.5258    0.0104 C.3       1 <0>        -0.1372
      2 C2          0.0021   -0.0041    0.0020 C.3       1 <0>        -0.0209
      3 C3          0.7421   -0.5109    1.2415 C.3       1 <0>        -0.1407
      4 C4         -1.4333   -0.5336    0.0129 C.3       1 <0>        -0.1291
      5 C5          0.7074   -0.4901   -1.2379 C.ar      1 <0>         0.2233
      6 C6          2.0845   -0.4178   -1.3315 C.ar      1 <0>        -0.2954
      7 C7          2.6988   -0.8792   -2.4984 C.ar      1 <0>         0.4450
      8 N1          1.9428   -1.3697   -3.4745 N.ar      1 <0>        -0.5773
      9 C8          0.6238   -1.4218   -3.3456 C.ar      1 <0>         0.4073
     10 N2          0.0150   -0.9957   -2.2466 N.ar      1 <0>        -0.5445
     11 C9         -0.1892   -1.9744   -4.4539 C.ar      1 <0>        -0.0538
     12 C10        -1.5786   -2.0323   -4.3397 C.ar      1 <0>        -0.0468
     13 C11        -2.3328   -2.5460   -5.3714 C.ar      1 <0>        -0.1119
     14 C12        -1.7098   -3.0076   -6.5270 C.ar      1 <0>        -0.0634
     15 C13        -0.3242   -2.9512   -6.6428 C.ar      1 <0>        -0.1471
     16 C14         0.4330   -2.4325   -5.6158 C.ar      1 <0>        -0.0481
     17 S1         -2.6768   -3.6649   -7.8452 S.3       1 <0>        -0.1121
     18 C15        -1.4516   -4.1241   -9.1016 C.3       1 <0>        -0.1462
     19 N3          4.0764   -0.8256   -2.6358 N.pl3     1 <0>        -0.8371
     20 H1          1.0039    1.9031    0.0027 H         1 <0>         0.0573
     21 H2         -0.5459    1.8868   -0.8726 H         1 <0>         0.0591
     22 H3         -0.5289    1.8773    0.9072 H         1 <0>         0.0679
     23 H4          0.2319   -0.1594    2.1383 H         1 <0>         0.0675
     24 H5          0.7568   -1.6008    1.2356 H         1 <0>         0.0580
     25 H6          1.7647   -0.1336    1.2338 H         1 <0>         0.0591
     26 H7         -1.9605   -0.1726   -0.8702 H         1 <0>         0.0668
     27 H8         -1.4185   -1.6235    0.0069 H         1 <0>         0.0568
     28 H9         -1.9435   -0.1821    0.9097 H         1 <0>         0.0560
     29 H10         2.6725   -0.0134   -0.5209 H         1 <0>         0.1409
     30 H11        -2.0624   -1.6748   -3.4427 H         1 <0>         0.1439
     31 H12        -3.4082   -2.5910   -5.2834 H         1 <0>         0.1341
     32 H13         0.1574   -3.3103   -7.5403 H         1 <0>         0.1278
     33 H14         1.5080   -2.3847   -5.7078 H         1 <0>         0.1385
     34 H15        -1.9604   -4.5463   -9.9682 H         1 <0>         0.1108
     35 H16        -0.8923   -3.2388   -9.4044 H         1 <0>         0.0855
     36 H17        -0.7657   -4.8630   -8.6873 H         1 <0>         0.0855
     37 H18         4.6217   -0.4658   -1.9188 H         1 <0>         0.4124
     38 H19         4.4956   -1.1479   -3.4490 H         1 <0>         0.4078
@<TRIPOS>BOND
     1    1    2 1
     2    1   20 1
     3    1   21 1
     4    1   22 1
     5    2    3 1
     6    2    4 1
     7    2    5 1
     8    3   23 1
     9    3   24 1
    10    3   25 1
    11    4   26 1
    12    4   27 1
    13    4   28 1
    14    5   10 ar
    15    5    6 ar
    16    6    7 ar
    17    6   29 1
    18    7    8 ar
    19    7   19 1
    20    8    9 ar
    21    9   10 ar
    22    9   11 1
    23   11   16 ar
    24   11   12 ar
    25   12   13 ar
    26   12   30 1
    27   13   14 ar
    28   13   31 1
    29   14   15 ar
    30   14   17 1
    31   15   16 ar
    32   15   32 1
    33   16   33 1
    34   17   18 1
    35   18   34 1
    36   18   35 1
    37   18   36 1
    38   19   37 1
    39   19   38 1
