@<TRIPOS>MOLECULE
ZINC20607236
   42    45     0     0     0
SMALL
USER_CHARGES
1-methyl-N-[4-(thiazol-2-ylsulfamoyl)phenyl]-3-(trifluoromethyl)thieno[4,5-d]pyrazole-5-carboxamide
@<TRIPOS>ATOM
      1 C1          1.9913    2.2376   -0.3337 C.3       1 <0>         0.0923
      2 N1          0.8943    2.9772    0.2955 N.pl3     1 <0>        -0.3132
      3 C2         -0.3969    2.5982    0.3332 C.2       1 <0>         0.0479
      4 C3         -1.1308    3.5738    1.0245 C.2       1 <0>        -0.2137
      5 C4         -2.5071    3.3290    1.1542 C.2       1 <0>        -0.0022
      6 C5         -3.0438    2.1952    0.6208 C.2       1 <0>        -0.2212
      7 S1         -1.6249    1.3972   -0.1106 S.3       1 <0>         0.1838
      8 C6         -4.4387    1.7460    0.6391 C.2       1 <0>         0.6071
      9 O1         -5.2892    2.4238    1.1856 O.2       1 <0>        -0.4982
     10 N2         -4.7796    0.5823    0.0508 N.am      1 <0>        -0.6752
     11 C7         -6.0906    0.1060    0.1510 C.ar      1 <0>         0.1768
     12 C8         -6.3303   -1.2595    0.2360 C.ar      1 <0>        -0.1715
     13 C9         -7.6259   -1.7263    0.3406 C.ar      1 <0>         0.0175
     14 C10        -8.6845   -0.8365    0.3494 C.ar      1 <0>        -0.6676
     15 C11        -8.4495    0.5232    0.2593 C.ar      1 <0>        -0.0088
     16 C12        -7.1560    0.9970    0.1601 C.ar      1 <0>        -0.1510
     17 S2        -10.3363   -1.4368    0.4752 S.o2      1 <0>         2.6257
     18 O2        -10.2586   -2.7127    1.0958 O.2       1 <0>        -1.0068
     19 O3        -11.1145   -0.3752    1.0107 O.2       1 <0>        -0.9886
     20 N3        -10.8829   -1.6930   -1.0669 N.2       1 <0>        -0.9948
     21 C13       -10.2918   -2.6646   -1.8592 C.2       1 <0>         0.4220
     22 N4         -9.2905   -3.4738   -1.5702 N.2       1 <0>        -0.6429
     23 C14        -8.8481   -4.3535   -2.4491 C.2       1 <0>         0.0948
     24 C15        -9.4387   -4.4029   -3.6669 C.2       1 <0>        -0.3275
     25 S3        -10.6739   -3.1240   -3.4896 S.3       1 <0>        -0.0483
     26 C16        -0.1659    4.5662    1.3953 C.2       1 <0>         0.0445
     27 N5          1.0041    4.2032    0.9638 N.2       1 <0>        -0.2042
     28 C17        -0.4614    5.8287    2.1633 C.3       1 <0>         0.5559
     29 F1         -0.3323    5.5815    3.5342 F         1 <0>        -0.1616
     30 F2          0.4406    6.8280    1.7826 F         1 <0>        -0.1627
     31 F3         -1.7668    6.2485    1.8861 F         1 <0>        -0.1572
     32 H1          1.6006    1.3108   -0.7791 H         1 <0>         0.1038
     33 H2          2.7484    1.9892    0.4246 H         1 <0>         0.0967
     34 H3          2.4485    2.8575   -1.1190 H         1 <0>         0.0968
     35 H4         -3.1375    4.0356    1.6737 H         1 <0>         0.1564
     36 H5         -4.0266    0.0073   -0.5081 H         1 <0>         0.4295
     37 H6         -5.5043   -1.9551    0.2243 H         1 <0>         0.1261
     38 H7         -7.8128   -2.7876    0.4112 H         1 <0>         0.1503
     39 H8         -9.2784    1.2155    0.2667 H         1 <0>         0.1374
     40 H9         -6.9732    2.0591    0.0901 H         1 <0>         0.1395
     41 H10        -8.0307   -5.0156   -2.2044 H         1 <0>         0.1426
     42 H11        -9.2225   -5.0395   -4.5121 H         1 <0>         0.1700
@<TRIPOS>BOND
     1    1    2 1
     2    1   32 1
     3    1   33 1
     4    1   34 1
     5    2   27 1
     6    2    3 1
     7    3    7 1
     8    3    4 2
     9    4    5 1
    10    4   26 1
    11    5    6 2
    12    5   35 1
    13    6    7 1
    14    6    8 1
    15    8    9 2
    16    8   10 am
    17   10   11 1
    18   10   36 1
    19   11   16 ar
    20   11   12 ar
    21   12   13 ar
    22   12   37 1
    23   13   14 ar
    24   13   38 1
    25   14   15 ar
    26   14   17 1
    27   15   16 ar
    28   15   39 1
    29   16   40 1
    30   17   18 2
    31   17   19 2
    32   17   20 1
    33   20   21 1
    34   21   25 1
    35   21   22 2
    36   22   23 1
    37   23   24 2
    38   23   41 1
    39   24   25 1
    40   24   42 1
    41   26   27 2
    42   26   28 1
    43   28   29 1
    44   28   30 1
    45   28   31 1
