@<TRIPOS>MOLECULE
ZINC60483592
   56    58     0     0     0
SMALL
USER_CHARGES

@<TRIPOS>ATOM
      1 C1          3.3662    2.1848   -2.4913 C.3       1 <0>        -0.1441
      2 C2          1.9680    1.8816   -1.9490 C.3       1 <0>        -0.0856
      3 C3          1.6486    0.4254   -2.1694 C.ar      1 <0>        -0.0660
      4 C4          0.9445    0.0342   -3.2915 C.ar      1 <0>        -0.1144
      5 C5          0.6511   -1.3016   -3.4945 C.ar      1 <0>        -0.0929
      6 C6          1.0617   -2.2502   -2.5756 C.ar      1 <0>        -0.1158
      7 C7          1.7664   -1.8656   -1.4520 C.ar      1 <0>        -0.0652
      8 C8          2.0669   -0.5251   -1.2477 C.ar      1 <0>         0.1084
      9 N1          2.7853   -0.1327   -0.1129 N.am      1 <0>        -0.6478
     10 C9          4.1105   -0.3672   -0.0399 C.2       1 <0>         0.5011
     11 O1          4.6956   -0.8419   -0.9903 O.2       1 <0>        -0.5065
     12 C10         4.8653   -0.0395    1.2226 C.3       1 <0>        -0.0322
     13 N2          6.2825   -0.3852    1.0496 N.4       1 <0>        -0.3714
     14 C11         6.8679    0.4645    0.0056 C.3       1 <0>        -0.0173
     15 C12         8.3222    0.0540   -0.2355 C.3       1 <0>        -0.1315
     16 C13         9.1156    0.2192    1.0638 C.3       1 <0>        -0.1483
     17 C14         8.4525   -0.6134    2.1648 C.3       1 <0>        -0.1366
     18 C15         6.9934   -0.1782    2.3170 C.3       1 <0>        -0.0034
     19 C16        10.5300   -0.2571    0.8546 C.2       1 <0>         0.4057
     20 O2         10.7735   -1.0733   -0.0085 O.2       1 <0>        -0.4300
     21 C17        11.6151    0.2681    1.6973 C.ar      1 <0>        -0.1788
     22 C18        11.3371    1.2055    2.6979 C.ar      1 <0>        -0.0647
     23 C19        12.3587    1.6928    3.4840 C.ar      1 <0>        -0.1223
     24 C20        13.6589    1.2568    3.2850 C.ar      1 <0>         0.0012
     25 C21        13.9418    0.3286    2.2959 C.ar      1 <0>        -0.1185
     26 C22        12.9293   -0.1718    1.5060 C.ar      1 <0>        -0.0420
     27 Cl1        14.9397    1.8770    4.2793 Cl        1 <0>        -0.0447
     28 C23         2.2130   -2.8998   -0.4511 C.3       1 <0>        -0.1155
     29 H1          4.0994    1.5692   -1.9703 H         1 <0>         0.0456
     30 H2          3.3981    1.9633   -3.5581 H         1 <0>         0.0615
     31 H3          3.5972    3.2381   -2.3319 H         1 <0>         0.0614
     32 H4          1.9361    2.1032   -0.8823 H         1 <0>         0.0678
     33 H5          1.2348    2.4973   -2.4701 H         1 <0>         0.0808
     34 H6          0.6224    0.7725   -4.0110 H         1 <0>         0.1320
     35 H7          0.0998   -1.6049   -4.3723 H         1 <0>         0.1326
     36 H8          0.8306   -3.2928   -2.7368 H         1 <0>         0.1317
     37 H9          2.3296    0.3081    0.6212 H         1 <0>         0.4153
     38 H10         4.7744    1.0259    1.4342 H         1 <0>         0.1617
     39 H11         4.4506   -0.6115    2.0527 H         1 <0>         0.1634
     40 H12         6.3002    0.3483   -0.9176 H         1 <0>         0.1515
     41 H13         6.8330    1.5064    0.3239 H         1 <0>         0.1284
     42 H14         8.3582   -0.9878   -0.5541 H         1 <0>         0.1019
     43 H15         8.7555    0.6872   -1.0097 H         1 <0>         0.1166
     44 H16         9.1229    1.2694    1.3555 H         1 <0>         0.1175
     45 H17         8.4913   -1.6691    1.8960 H         1 <0>         0.0980
     46 H18         8.9790   -0.4573    3.1063 H         1 <0>         0.1229
     47 H19         6.9558    0.8774    2.5859 H         1 <0>         0.1358
     48 H20         6.5183   -0.7689    3.1002 H         1 <0>         0.1391
     49 H21        10.3243    1.5466    2.8537 H         1 <0>         0.1380
     50 H22        12.1456    2.4165    4.2569 H         1 <0>         0.1445
     51 H23        14.9575   -0.0065    2.1461 H         1 <0>         0.1464
     52 H24        13.1506   -0.8983    0.7381 H         1 <0>         0.1461
     53 H25         3.1577   -3.3358   -0.7760 H         1 <0>         0.0733
     54 H26         2.3461   -2.4291    0.5230 H         1 <0>         0.0574
     55 H27         1.4582   -3.6827   -0.3761 H         1 <0>         0.0764
     56 H28         6.3605   -1.3531    0.7756 H         1 <0>         0.4313
@<TRIPOS>BOND
     1    1    2 1
     2    1   29 1
     3    1   30 1
     4    1   31 1
     5    2    3 1
     6    2   32 1
     7    2   33 1
     8    3    8 ar
     9    3    4 ar
    10    4    5 ar
    11    4   34 1
    12    5    6 ar
    13    5   35 1
    14    6    7 ar
    15    6   36 1
    16    7    8 ar
    17    7   28 1
    18    8    9 1
    19    9   10 am
    20    9   37 1
    21   10   11 2
    22   10   12 1
    23   12   13 1
    24   12   38 1
    25   12   39 1
    26   13   18 1
    27   13   14 1
    28   13   56 1
    29   14   15 1
    30   14   40 1
    31   14   41 1
    32   15   16 1
    33   15   42 1
    34   15   43 1
    35   16   17 1
    36   16   19 1
    37   16   44 1
    38   17   18 1
    39   17   45 1
    40   17   46 1
    41   18   47 1
    42   18   48 1
    43   19   20 2
    44   19   21 1
    45   21   26 ar
    46   21   22 ar
    47   22   23 ar
    48   22   49 1
    49   23   24 ar
    50   23   50 1
    51   24   25 ar
    52   24   27 1
    53   25   26 ar
    54   25   51 1
    55   26   52 1
    56   28   53 1
    57   28   54 1
    58   28   55 1
