@<TRIPOS>MOLECULE
ZINC60356525
   64    67     0     0     0
SMALL
USER_CHARGES

@<TRIPOS>ATOM
      1 C1         -1.4687    0.8956    0.1302 C.3       1 <0>        -0.0544
      2 C2         -1.1134   -0.5684    0.0917 C.2       1 <0>         0.1005
      3 C3         -0.9797   -1.3508   -1.0655 C.2       1 <0>        -0.0152
      4 C4         -0.6531   -2.6109   -0.6804 C.2       1 <0>         0.0814
      5 N1         -0.5839   -2.6192    0.6787 N.pl3     1 <0>        -0.3140
      6 N2         -0.8714   -1.3252    1.1315 N.2       1 <0>        -0.2718
      7 C5         -0.2748   -3.7250    1.4825 C.ar      1 <0>         0.1443
      8 C6          0.7048   -4.6238    1.0821 C.ar      1 <0>        -0.1266
      9 C7          1.0071   -5.7126    1.8763 C.ar      1 <0>        -0.0989
     10 C8          0.3353   -5.9080    3.0691 C.ar      1 <0>        -0.1124
     11 C9         -0.6408   -5.0146    3.4705 C.ar      1 <0>        -0.0989
     12 C10        -0.9436   -3.9208    2.6834 C.ar      1 <0>        -0.1051
     13 C11        -0.4121   -3.7866   -1.5917 C.3       1 <0>        -0.0954
     14 N3         -1.1536   -0.9079   -2.3899 N.am      1 <0>        -0.6302
     15 C12        -0.7908    0.3434   -2.7352 C.2       1 <0>         0.5133
     16 O1         -0.2722    1.0724   -1.9160 O.2       1 <0>        -0.5087
     17 C13        -1.0293    0.8368   -4.1391 C.3       1 <0>        -0.1702
     18 C14        -0.5298    2.2774   -4.2651 C.3       1 <0>         0.0048
     19 N4         -0.7623    2.7584   -5.6335 N.4       1 <0>        -0.3848
     20 C15        -2.2071    2.8241   -5.8906 C.3       1 <0>        -0.0564
     21 C16        -0.1760    4.0964   -5.7885 C.3       1 <0>         0.0378
     22 C17        -0.2992    4.5354   -7.2249 C.ar      1 <0>        -0.1484
     23 C18        -1.2376    5.4835   -7.5801 C.ar      1 <0>        -0.0857
     24 C19        -1.3517    5.8874   -8.8978 C.ar      1 <0>        -0.1118
     25 C20        -0.5268    5.3447   -9.8669 C.ar      1 <0>        -0.0824
     26 C21         0.4151    4.3966   -9.5229 C.ar      1 <0>        -0.1000
     27 C22         0.5377    3.9895   -8.1957 C.ar      1 <0>        -0.0219
     28 C23         1.5521    2.9741   -7.8190 C.ar      1 <0>        -0.0867
     29 C24         2.4982    3.2618   -6.8373 C.ar      1 <0>        -0.1187
     30 C25         3.4392    2.3135   -6.4905 C.ar      1 <0>        -0.1112
     31 C26         3.4440    1.0795   -7.1154 C.ar      1 <0>        -0.1036
     32 C27         2.5074    0.7888   -8.0908 C.ar      1 <0>        -0.1107
     33 C28         1.5583    1.7276   -8.4414 C.ar      1 <0>        -0.1102
     34 H1         -0.5583    1.4882    0.2202 H         1 <0>         0.0889
     35 H2         -1.9897    1.1672   -0.7879 H         1 <0>         0.0679
     36 H3         -2.1151    1.0902    0.9860 H         1 <0>         0.0661
     37 H4          1.2296   -4.4719    0.1505 H         1 <0>         0.1297
     38 H5          1.7688   -6.4123    1.5653 H         1 <0>         0.1361
     39 H6          0.5733   -6.7603    3.6882 H         1 <0>         0.1338
     40 H7         -1.1638   -5.1698    4.4026 H         1 <0>         0.1363
     41 H8         -1.7027   -3.2207    2.9997 H         1 <0>         0.1337
     42 H9          0.6558   -3.8806   -1.7888 H         1 <0>         0.0859
     43 H10        -0.7749   -4.6968   -1.1143 H         1 <0>         0.0833
     44 H11        -0.9427   -3.6328   -2.5313 H         1 <0>         0.0823
     45 H12        -1.5347   -1.5031   -3.0543 H         1 <0>         0.4101
     46 H13        -0.4909    0.2026   -4.8434 H         1 <0>         0.1175
     47 H14        -2.0960    0.8014   -4.3603 H         1 <0>         0.1192
     48 H15        -1.0682    2.9116   -3.5607 H         1 <0>         0.1429
     49 H16         0.5369    2.3128   -4.0438 H         1 <0>         0.1402
     50 H17        -2.6604    3.5633   -5.2301 H         1 <0>         0.1264
     51 H18        -2.3789    3.1102   -6.9283 H         1 <0>         0.1250
     52 H19        -2.6541    1.8476   -5.7041 H         1 <0>         0.1235
     53 H20        -0.7043    4.8012   -5.1465 H         1 <0>         0.1394
     54 H21         0.8765    4.0667   -5.5067 H         1 <0>         0.1396
     55 H22        -1.8840    5.9103   -6.8276 H         1 <0>         0.1352
     56 H23        -2.0877    6.6288   -9.1715 H         1 <0>         0.1374
     57 H24        -0.6204    5.6634  -10.8945 H         1 <0>         0.1378
     58 H25         1.0583    3.9734  -10.2802 H         1 <0>         0.1357
     59 H26         2.4955    4.2251   -6.3491 H         1 <0>         0.1291
     60 H27         4.1732    2.5355   -5.7300 H         1 <0>         0.1329
     61 H28         4.1821    0.3403   -6.8409 H         1 <0>         0.1315
     62 H29         2.5159   -0.1762   -8.5758 H         1 <0>         0.1329
     63 H30         0.8247    1.4979   -9.2000 H         1 <0>         0.1302
     64 H31        -0.3323    2.1246   -6.2904 H         1 <0>         0.4214
@<TRIPOS>BOND
     1    1    2 1
     2    1   34 1
     3    1   35 1
     4    1   36 1
     5    2    6 2
     6    2    3 1
     7    3    4 2
     8    3   14 1
     9    4    5 1
    10    4   13 1
    11    5    6 1
    12    5    7 1
    13    7   12 ar
    14    7    8 ar
    15    8    9 ar
    16    8   37 1
    17    9   10 ar
    18    9   38 1
    19   10   11 ar
    20   10   39 1
    21   11   12 ar
    22   11   40 1
    23   12   41 1
    24   13   42 1
    25   13   43 1
    26   13   44 1
    27   14   15 am
    28   14   45 1
    29   15   16 2
    30   15   17 1
    31   17   18 1
    32   17   46 1
    33   17   47 1
    34   18   19 1
    35   18   48 1
    36   18   49 1
    37   19   20 1
    38   19   21 1
    39   19   64 1
    40   20   50 1
    41   20   51 1
    42   20   52 1
    43   21   22 1
    44   21   53 1
    45   21   54 1
    46   22   27 ar
    47   22   23 ar
    48   23   24 ar
    49   23   55 1
    50   24   25 ar
    51   24   56 1
    52   25   26 ar
    53   25   57 1
    54   26   27 ar
    55   26   58 1
    56   27   28 1
    57   28   33 ar
    58   28   29 ar
    59   29   30 ar
    60   29   59 1
    61   30   31 ar
    62   30   60 1
    63   31   32 ar
    64   31   61 1
    65   32   33 ar
    66   32   62 1
    67   33   63 1
