@<TRIPOS>MOLECULE
ZINC52202274
   41    43     0     0     0
SMALL
USER_CHARGES

@<TRIPOS>ATOM
      1 C1         -1.7753   -3.6770   -2.3573 C.3       1 <0>        -0.1412
      2 C2         -2.9889   -2.7491   -2.2741 C.3       1 <0>        -0.1021
      3 C3         -2.8467   -1.8420   -1.0791 C.ar      1 <0>        -0.0375
      4 C4         -3.5211   -2.1285    0.0907 C.ar      1 <0>        -0.1249
      5 C5         -3.3911   -1.2971    1.1883 C.ar      1 <0>        -0.1012
      6 C6         -2.5857   -0.1743    1.1207 C.ar      1 <0>        -0.1305
      7 C7         -1.9068    0.1219   -0.0435 C.ar      1 <0>        -0.0756
      8 C8         -2.0295   -0.7155   -1.1511 C.ar      1 <0>        -0.0329
      9 C9         -1.2979   -0.4055   -2.4034 C.ar      1 <0>         0.4061
     10 N1         -1.9553   -0.4030   -3.5525 N.ar      1 <0>        -0.5463
     11 C10        -1.3394   -0.1285   -4.6986 C.ar      1 <0>         0.2079
     12 C11         0.0042    0.1598   -4.6812 C.ar      1 <0>        -0.2471
     13 C12         0.6761    0.1463   -3.4515 C.ar      1 <0>         0.4394
     14 N2         -0.0020   -0.1320   -2.3453 N.ar      1 <0>        -0.5656
     15 N3          2.0318    0.4254   -3.3908 N.pl3     1 <0>        -0.7151
     16 C13         2.7260    0.4090   -2.1008 C.3       1 <0>         0.0978
     17 C14         0.7820    0.4963   -5.9232 C.3       1 <0>        -0.0644
     18 C15         0.0178    0.0512   -7.1696 C.3       1 <0>        -0.1190
     19 C16        -1.4131    0.5945   -7.0817 C.3       1 <0>        -0.1192
     20 C17        -2.1471   -0.1511   -5.9680 C.3       1 <0>        -0.0716
     21 H1         -1.8782   -4.3331   -3.2216 H         1 <0>         0.0567
     22 H2         -0.8685   -3.0809   -2.4595 H         1 <0>         0.0456
     23 H3         -1.7147   -4.2781   -1.4500 H         1 <0>         0.0545
     24 H4         -3.0496   -2.1480   -3.1813 H         1 <0>         0.1016
     25 H5         -3.8958   -3.3452   -2.1719 H         1 <0>         0.0712
     26 H6         -4.1518   -3.0033    0.1488 H         1 <0>         0.1265
     27 H7         -3.9207   -1.5251    2.1015 H         1 <0>         0.1252
     28 H8         -2.4884    0.4718    1.9807 H         1 <0>         0.1263
     29 H9         -1.2783    0.9987   -0.0951 H         1 <0>         0.1239
     30 H10         2.5214    0.6317   -4.2024 H         1 <0>         0.4119
     31 H11         2.2753    1.1462   -1.4363 H         1 <0>         0.0594
     32 H12         2.6409   -0.5820   -1.6550 H         1 <0>         0.0592
     33 H13         3.7782    0.6507   -2.2513 H         1 <0>         0.0737
     34 H14         0.9447    1.5732   -5.9658 H         1 <0>         0.0742
     35 H15         1.7469   -0.0099   -5.8923 H         1 <0>         0.0688
     36 H16         0.5062    0.4477   -8.0597 H         1 <0>         0.0726
     37 H17        -0.0059   -1.0376   -7.2154 H         1 <0>         0.0675
     38 H18        -1.3869    1.6600   -6.8536 H         1 <0>         0.0679
     39 H19        -1.9252    0.4325   -8.0302 H         1 <0>         0.0766
     40 H20        -2.3101   -1.1847   -6.2731 H         1 <0>         0.0897
     41 H21        -3.1112    0.3253   -5.7902 H         1 <0>         0.0904
@<TRIPOS>BOND
     1    1    2 1
     2    1   21 1
     3    1   22 1
     4    1   23 1
     5    2    3 1
     6    2   24 1
     7    2   25 1
     8    3    8 ar
     9    3    4 ar
    10    4    5 ar
    11    4   26 1
    12    5    6 ar
    13    5   27 1
    14    6    7 ar
    15    6   28 1
    16    7    8 ar
    17    7   29 1
    18    8    9 1
    19    9   14 ar
    20    9   10 ar
    21   10   11 ar
    22   11   20 1
    23   11   12 ar
    24   12   13 ar
    25   12   17 1
    26   13   14 ar
    27   13   15 1
    28   15   16 1
    29   15   30 1
    30   16   31 1
    31   16   32 1
    32   16   33 1
    33   17   18 1
    34   17   34 1
    35   17   35 1
    36   18   19 1
    37   18   36 1
    38   18   37 1
    39   19   20 1
    40   19   38 1
    41   19   39 1
    42   20   40 1
    43   20   41 1
