@<TRIPOS>MOLECULE
ZINC29836754
   48    49     0     0     0
SMALL
USER_CHARGES
(2S)-2-(2,4-dichlorophenoxy)-N-[(2R)-2-(dimethylamino)-2-(3-fluorophenyl)ethyl]propanamide
@<TRIPOS>ATOM
      1 C1          3.7108   -4.7113    2.4868 C.3       1 <0>        -0.1826
      2 C2          3.2091   -3.7811    1.3804 C.3       1 <0>         0.0650
      3 H1          3.9361   -2.9866    1.1561 H         1 <0>         0.1052
      4 C3          2.9123   -4.5875    0.1424 C.2       1 <0>         0.5239
      5 O1          1.7916   -4.5964   -0.3213 O.2       1 <0>        -0.4847
      6 N1          3.8921   -5.2987   -0.4496 N.am      1 <0>        -0.7596
      7 C4          3.6036   -6.0826   -1.6532 C.3       1 <0>         0.0996
      8 C5          4.9072   -6.6543   -2.2142 C.3       1 <0>         0.0782
      9 H2          5.4837   -7.1647   -1.4286 H         1 <0>         0.1543
     10 C6          4.5938   -7.6225   -3.3257 C.ar      1 <0>        -0.1091
     11 C7          4.5010   -7.1714   -4.6294 C.ar      1 <0>        -0.1496
     12 C8          4.2184   -8.0591   -5.6505 C.ar      1 <0>        -0.0675
     13 C9          4.0178   -9.3972   -5.3680 C.ar      1 <0>        -0.1268
     14 C10         4.1053   -9.8491   -4.0623 C.ar      1 <0>         0.1244
     15 C11         4.3937   -8.9597   -3.0408 C.ar      1 <0>        -0.1245
     16 F1          3.9090  -11.1566   -3.7849 F         1 <0>        -0.1214
     17 N2          5.7366   -5.5604   -2.7370 N.4       1 <0>        -0.4033
     18 C12         4.9023   -4.4836   -3.2869 C.3       1 <0>        -0.0724
     19 C13         6.6441   -5.0470   -1.7022 C.3       1 <0>        -0.0531
     20 O2          2.0187   -3.1215    1.8160 O.3       1 <0>        -0.2746
     21 C14         2.1744   -2.0102    2.5835 C.ar      1 <0>         0.1383
     22 C15         3.4422   -1.6142    2.9828 C.ar      1 <0>        -0.1920
     23 C16         3.5986   -0.4843    3.7623 C.ar      1 <0>        -0.0633
     24 C17         2.4917    0.2525    4.1451 C.ar      1 <0>        -0.0574
     25 C18         1.2259   -0.1401    3.7481 C.ar      1 <0>        -0.0606
     26 C19         1.0649   -1.2701    2.9680 C.ar      1 <0>        -0.0538
     27 Cl1        -0.5234   -1.7626    2.4695 Cl        1 <0>        -0.0318
     28 Cl2         2.6916    1.6721    5.1242 Cl        1 <0>        -0.0458
     29 H3          3.9274   -4.1227    3.3905 H         1 <0>         0.0864
     30 H4          4.6272   -5.2190    2.1514 H         1 <0>         0.0780
     31 H5          2.9384   -5.4609    2.7139 H         1 <0>         0.0842
     32 H6          4.9085   -5.2906   -0.0290 H         1 <0>         0.4169
     33 H7          2.9211   -6.9070   -1.3990 H         1 <0>         0.1137
     34 H8          3.1322   -5.4358   -2.4078 H         1 <0>         0.1068
     35 H9          4.6535   -6.1254   -4.8506 H         1 <0>         0.1348
     36 H10         4.1503   -7.7064   -6.6690 H         1 <0>         0.1491
     37 H11         3.7926  -10.0899   -6.1654 H         1 <0>         0.1515
     38 H12         4.4618   -9.3110   -2.0218 H         1 <0>         0.1487
     39 H13         5.5474   -3.6794   -3.6705 H         1 <0>         0.1337
     40 H14         4.2502   -4.0847   -2.4959 H         1 <0>         0.1279
     41 H15         4.2846   -4.8803   -4.1061 H         1 <0>         0.1327
     42 H16         7.2519   -4.2307   -2.1197 H         1 <0>         0.1357
     43 H17         7.3043   -5.8571   -1.3588 H         1 <0>         0.1325
     44 H18         6.0556   -4.6688   -0.8533 H         1 <0>         0.1137
     45 H19         4.3067   -2.1885    2.6843 H         1 <0>         0.1454
     46 H20         4.5858   -0.1759    4.0733 H         1 <0>         0.1464
     47 H21         0.3635    0.4388    4.0441 H         1 <0>         0.1554
     48 H22         6.3509   -5.9636   -3.5556 H         1 <0>         0.4517
@<TRIPOS>BOND
     1    1    2 1
     2    1   29 1
     3    1   30 1
     4    1   31 1
     5    2    3 1
     6    2    4 1
     7    2   20 1
     8    4    5 2
     9    4    6 am
    10    6    7 1
    11    6   32 1
    12    7    8 1
    13    7   33 1
    14    7   34 1
    15    8    9 1
    16    8   10 1
    17    8   17 1
    18   10   15 ar
    19   10   11 ar
    20   11   12 ar
    21   11   35 1
    22   12   13 ar
    23   12   36 1
    24   13   14 ar
    25   13   37 1
    26   14   15 ar
    27   14   16 1
    28   15   38 1
    29   17   18 1
    30   17   19 1
    31   17   48 1
    32   18   39 1
    33   18   40 1
    34   18   41 1
    35   19   42 1
    36   19   43 1
    37   19   44 1
    38   20   21 1
    39   21   26 ar
    40   21   22 ar
    41   22   23 ar
    42   22   45 1
    43   23   24 ar
    44   23   46 1
    45   24   25 ar
    46   24   28 1
    47   25   26 ar
    48   25   47 1
    49   26   27 1
