@<TRIPOS>MOLECULE
ZINC38857388
   48    50     0     0     0
SMALL
USER_CHARGES

@<TRIPOS>ATOM
      1 C1         -0.0167    1.3780    0.0096 C.ar      1 <0>        -0.1134
      2 C2          1.1709    2.0861    0.0021 C.ar      1 <0>        -0.0916
      3 C3          2.3773    1.4123   -0.0135 C.ar      1 <0>        -0.1102
      4 C4          2.3967    0.0287   -0.0210 C.ar      1 <0>        -0.0218
      5 C5          1.2083   -0.6792   -0.0130 C.ar      1 <0>        -0.1132
      6 C6          0.0021   -0.0041    0.0020 C.ar      1 <0>        -0.0866
      7 C7          1.2286   -2.1860   -0.0218 C.3       1 <0>         0.1598
      8 N1          1.4887   -2.6787    1.3331 N.am      1 <0>        -0.7105
      9 C8          1.5517   -4.0045    1.5675 C.2       1 <0>         0.5255
     10 O1          1.3931   -4.7895    0.6568 O.2       1 <0>        -0.5266
     11 C9          1.8193   -4.5113    2.9613 C.3       1 <0>        -0.1311
     12 H1          2.7834   -4.1373    3.3058 H         1 <0>         0.1223
     13 C10         0.7152   -4.0234    3.9037 C.3       1 <0>        -0.1302
     14 C11         0.9534   -4.6077    5.2990 C.3       1 <0>        -0.1404
     15 C12         1.0030   -6.1343    5.2051 C.3       1 <0>        -0.0213
     16 N2          2.0948   -6.5379    4.3110 N.4       1 <0>        -0.3791
     17 C13         1.8378   -6.0414    2.9538 C.3       1 <0>         0.0093
     18 C14         2.1880   -8.0037    4.2850 C.3       1 <0>         0.0335
     19 C15         2.5829   -8.5062    5.6498 C.ar      1 <0>        -0.1438
     20 C16         3.9199   -8.6526    5.9730 C.ar      1 <0>        -0.0084
     21 C17         4.2819   -9.1140    7.2262 C.ar      1 <0>        -0.0946
     22 C18         3.3079   -9.4290    8.1549 C.ar      1 <0>        -0.0574
     23 C19         1.9717   -9.2829    7.8325 C.ar      1 <0>        -0.0951
     24 C20         1.6087   -8.8157    6.5818 C.ar      1 <0>        -0.0116
     25 Cl1        -0.0693   -8.6249    6.1797 Cl        1 <0>        -0.0359
     26 Cl2         5.1434   -8.2581    4.8064 Cl        1 <0>        -0.0351
     27 Cl3         3.9119   -0.8184   -0.0411 Cl        1 <0>        -0.0617
     28 H2         -0.9592    1.9049    0.0259 H         1 <0>         0.1356
     29 H3          1.1556    3.1659    0.0080 H         1 <0>         0.1383
     30 H4          3.3048    1.9655   -0.0201 H         1 <0>         0.1388
     31 H5         -0.9258   -0.5566    0.0079 H         1 <0>         0.1353
     32 H6          0.2643   -2.5603   -0.3656 H         1 <0>         0.0873
     33 H7          2.0139   -2.5349   -0.6923 H         1 <0>         0.0888
     34 H8          1.6155   -2.0509    2.0615 H         1 <0>         0.4050
     35 H9          0.7354   -2.9348    3.9560 H         1 <0>         0.1009
     36 H10        -0.2544   -4.3536    3.5309 H         1 <0>         0.0918
     37 H11         1.8997   -4.2364    5.6924 H         1 <0>         0.0917
     38 H12         0.1409   -4.3100    5.9619 H         1 <0>         0.1202
     39 H13         1.1723   -6.5535    6.1968 H         1 <0>         0.1304
     40 H14         0.0562   -6.5045    4.8118 H         1 <0>         0.1336
     41 H15         0.8737   -6.4143    2.6082 H         1 <0>         0.1421
     42 H16         2.6231   -6.3915    2.2838 H         1 <0>         0.1422
     43 H17         1.2212   -8.4244    4.0087 H         1 <0>         0.1474
     44 H18         2.9384   -8.3072    3.5550 H         1 <0>         0.1478
     45 H19         5.3257   -9.2284    7.4787 H         1 <0>         0.1564
     46 H20         3.5909   -9.7898    9.1327 H         1 <0>         0.1589
     47 H21         1.2111   -9.5295    8.5584 H         1 <0>         0.1565
     48 H22         2.9644   -6.1535    4.6489 H         1 <0>         0.4200
@<TRIPOS>BOND
     1    1    6 ar
     2    1    2 ar
     3    1   28 1
     4    2    3 ar
     5    2   29 1
     6    3    4 ar
     7    3   30 1
     8    4    5 ar
     9    4   27 1
    10    5    6 ar
    11    5    7 1
    12    6   31 1
    13    7    8 1
    14    7   32 1
    15    7   33 1
    16    8    9 am
    17    8   34 1
    18    9   10 2
    19    9   11 1
    20   11   12 1
    21   11   17 1
    22   11   13 1
    23   13   14 1
    24   13   35 1
    25   13   36 1
    26   14   15 1
    27   14   37 1
    28   14   38 1
    29   15   16 1
    30   15   39 1
    31   15   40 1
    32   16   17 1
    33   16   18 1
    34   16   48 1
    35   17   41 1
    36   17   42 1
    37   18   19 1
    38   18   43 1
    39   18   44 1
    40   19   24 ar
    41   19   20 ar
    42   20   21 ar
    43   20   26 1
    44   21   22 ar
    45   21   45 1
    46   22   23 ar
    47   22   46 1
    48   23   24 ar
    49   23   47 1
    50   24   25 1
