@<TRIPOS>MOLECULE
ZINC64538269
   53    56     0     0     0
SMALL
USER_CHARGES

@<TRIPOS>ATOM
      1 C1         -0.0187    1.5258    0.0104 C.3       1 <0>        -0.1713
      2 C2          0.0021   -0.0041    0.0020 C.3       1 <0>         0.1213
      3 H1          0.5123   -0.3556   -0.8948 H         1 <0>         0.1295
      4 C3         -1.4117   -0.5257    0.0127 C.2       1 <0>         0.5163
      5 O1         -1.7902   -1.2332    0.9222 O.2       1 <0>        -0.5059
      6 N1         -2.2556   -0.2060   -0.9884 N.am      1 <0>        -0.7333
      7 C4         -3.6300   -0.7131   -0.9780 C.3       1 <0>         0.1284
      8 C5         -4.3700   -0.2062   -2.2175 C.3       1 <0>        -0.1049
      9 C6         -5.7838   -0.7279   -2.2068 C.2       1 <0>         0.0699
     10 C7         -6.8821   -0.0906   -1.7411 C.ar      1 <0>        -0.1665
     11 C8         -7.0815    1.2278   -1.1276 C.ar      1 <0>        -0.0121
     12 C9         -8.3282    1.5959   -0.7542 C.ar      1 <0>        -0.1504
     13 C10        -9.4319    0.7516   -0.9377 C.ar      1 <0>         0.0557
     14 C11        -9.3281   -0.4738   -1.4941 C.ar      1 <0>        -0.2105
     15 C12        -8.0639   -0.9631   -1.9243 C.ar      1 <0>         0.3280
     16 N2         -7.7100   -2.0957   -2.4815 N.pl3     1 <0>        -0.5852
     17 C13        -6.2627   -2.0672   -2.7207 C.3       1 <0>         0.0607
     18 N3          0.7106   -0.4894    1.1889 N.am      1 <0>        -0.5212
     19 C14         1.8610   -1.2727    1.0368 C.ar      1 <0>         0.1063
     20 C15         2.5050   -1.3557   -0.1870 C.ar      1 <0>        -0.1238
     21 C16         3.6374   -2.1388   -0.3173 C.ar      1 <0>        -0.1156
     22 C17         4.1309   -2.8402    0.7674 C.ar      1 <0>        -0.0988
     23 C18         3.4953   -2.7620    1.9940 C.ar      1 <0>        -0.1263
     24 C19         2.3637   -1.9782    2.1316 C.ar      1 <0>         0.1566
     25 N4          1.7041   -1.8687    3.3638 N.pl3     1 <0>        -0.7355
     26 C20         0.9881   -0.6170    3.6523 C.3       1 <0>         0.1095
     27 H2          0.2775   -0.7818    4.4622 H         1 <0>         0.1622
     28 C21         0.2518   -0.1727    2.4146 C.2       1 <0>         0.5252
     29 O2         -0.7682    0.4745    2.5241 O.2       1 <0>        -0.4830
     30 C22         1.9908    0.4632    4.0630 C.3       1 <0>         0.4388
     31 F1          2.8996    0.6763    3.0210 F         1 <0>        -0.1722
     32 F2          1.3081    1.6531    4.3371 F         1 <0>        -0.1705
     33 F3          2.6815    0.0478    5.2066 F         1 <0>        -0.1683
     34 H3          1.0039    1.9031    0.0027 H         1 <0>         0.0798
     35 H4         -0.5459    1.8868   -0.8726 H         1 <0>         0.0781
     36 H5         -0.5289    1.8773    0.9072 H         1 <0>         0.0863
     37 H6         -1.9529    0.3598   -1.7158 H         1 <0>         0.4060
     38 H7         -3.6152   -1.8030   -0.9840 H         1 <0>         0.0774
     39 H8         -4.1402   -0.3616   -0.0812 H         1 <0>         0.0797
     40 H9         -4.3847    0.8836   -2.2115 H         1 <0>         0.1169
     41 H10        -3.8598   -0.5578   -3.1143 H         1 <0>         0.1196
     42 H11        -6.2450    1.8940   -0.9762 H         1 <0>         0.1610
     43 H12        -8.4771    2.5655   -0.3026 H         1 <0>         0.1585
     44 H13       -10.4053    1.0956   -0.6205 H         1 <0>         0.1615
     45 H14       -10.2098   -1.0861   -1.6130 H         1 <0>         0.1609
     46 H15        -6.0541   -2.1570   -3.7868 H         1 <0>         0.1753
     47 H16        -5.7775   -2.8751   -2.1729 H         1 <0>         0.1739
     48 H17         2.1234   -0.8102   -1.0374 H         1 <0>         0.1301
     49 H18         4.1389   -2.2033   -1.2717 H         1 <0>         0.1324
     50 H19         5.0147   -3.4510    0.6569 H         1 <0>         0.1335
     51 H20         3.8814   -3.3100    2.8408 H         1 <0>         0.1357
     52 H21         1.7192   -2.5957    4.0057 H         1 <0>         0.4240
     53 H22        -8.3059   -2.8285   -2.7025 H         1 <0>         0.4562
@<TRIPOS>BOND
     1    1    2 1
     2    1   34 1
     3    1   35 1
     4    1   36 1
     5    2    3 1
     6    2    4 1
     7    2   18 1
     8    4    5 2
     9    4    6 am
    10    6    7 1
    11    6   37 1
    12    7    8 1
    13    7   38 1
    14    7   39 1
    15    8    9 1
    16    8   40 1
    17    8   41 1
    18    9   17 1
    19    9   10 2
    20   10   15 ar
    21   10   11 ar
    22   11   12 ar
    23   11   42 1
    24   12   13 ar
    25   12   43 1
    26   13   14 ar
    27   13   44 1
    28   14   15 ar
    29   14   45 1
    30   15   16 2
    31   16   17 1
    32   16   53 1
    33   17   46 1
    34   17   47 1
    35   18   28 am
    36   18   19 1
    37   19   24 ar
    38   19   20 ar
    39   20   21 ar
    40   20   48 1
    41   21   22 ar
    42   21   49 1
    43   22   23 ar
    44   22   50 1
    45   23   24 ar
    46   23   51 1
    47   24   25 1
    48   25   26 1
    49   25   52 1
    50   26   27 1
    51   26   28 1
    52   26   30 1
    53   28   29 2
    54   30   31 1
    55   30   32 1
    56   30   33 1
