@<TRIPOS>MOLECULE
ZINC35340888
   36    38     0     0     0
SMALL
USER_CHARGES

@<TRIPOS>ATOM
      1 C1         -0.0983    1.5011    0.0189 C.3       1 <0>        -0.1183
      2 C2         -0.0566   -0.0053    0.0084 C.ar      1 <0>        -0.0880
      3 C3          1.1101   -0.6659    0.3475 C.ar      1 <0>        -0.1004
      4 C4          1.1510   -2.0464    0.3387 C.ar      1 <0>        -0.1237
      5 C5          0.0199   -2.7707   -0.0108 C.ar      1 <0>         0.0871
      6 C6         -1.1494   -2.1054   -0.3505 C.ar      1 <0>        -0.1362
      7 C7         -1.1864   -0.7245   -0.3347 C.ar      1 <0>        -0.0704
      8 C8         -2.4578   -0.0013   -0.6976 C.3       1 <0>        -0.1188
      9 O1          0.0576   -4.1289   -0.0207 O.3       1 <0>        -0.2554
     10 C9         -0.0445   -4.7612   -1.2191 C.ar      1 <0>         0.0762
     11 C10        -0.0526   -4.0326   -2.3872 C.ar      1 <0>        -0.1383
     12 C11        -0.1571   -4.6675   -3.6209 C.ar      1 <0>        -0.1761
     13 C12        -0.2545   -6.0388   -3.7050 C.ar      1 <0>         0.2220
     14 C13        -0.2486   -6.8148   -2.5266 C.ar      1 <0>         0.1024
     15 C14        -0.1368   -6.1657   -1.2727 C.ar      1 <0>        -0.0700
     16 C15        -0.1264   -6.9432   -0.1007 C.ar      1 <0>        -0.0500
     17 C16        -0.2197   -8.3005   -0.2261 C.ar      1 <0>        -0.1715
     18 C17        -0.3216   -8.8760   -1.4905 C.ar      1 <0>         0.1230
     19 N1         -0.3418   -8.1469   -2.5800 N.ar      1 <0>        -0.4686
     20 N2         -0.3591   -6.6594   -4.9532 N.pl3     1 <0>        -0.8590
     21 H1         -0.3982    1.8494    1.0073 H         1 <0>         0.0732
     22 H2          0.8901    1.8936   -0.2202 H         1 <0>         0.0685
     23 H3         -0.8169    1.8498   -0.7228 H         1 <0>         0.0705
     24 H4          1.9901   -0.1018    0.6190 H         1 <0>         0.1314
     25 H5          2.0625   -2.5618    0.6032 H         1 <0>         0.1319
     26 H6         -2.0309   -2.6667   -0.6233 H         1 <0>         0.1293
     27 H7         -2.4744    0.1880   -1.7709 H         1 <0>         0.0738
     28 H8         -3.3159   -0.6150   -0.4235 H         1 <0>         0.0683
     29 H9         -2.5026    0.9464   -0.1608 H         1 <0>         0.0725
     30 H10         0.0226   -2.9560   -2.3454 H         1 <0>         0.1320
     31 H11        -0.1623   -4.0768   -4.5251 H         1 <0>         0.1305
     32 H12        -0.0464   -6.4801    0.8717 H         1 <0>         0.1435
     33 H13        -0.2143   -8.9264    0.6540 H         1 <0>         0.1394
     34 H14        -0.3944   -9.9502   -1.5751 H         1 <0>         0.1608
     35 H15        -0.3633   -6.1242   -5.7621 H         1 <0>         0.4000
     36 H16        -0.4276   -7.6253   -5.0103 H         1 <0>         0.4082
@<TRIPOS>BOND
     1    1    2 1
     2    1   21 1
     3    1   22 1
     4    1   23 1
     5    2    7 ar
     6    2    3 ar
     7    3    4 ar
     8    3   24 1
     9    4    5 ar
    10    4   25 1
    11    5    6 ar
    12    5    9 1
    13    6    7 ar
    14    6   26 1
    15    7    8 1
    16    8   27 1
    17    8   28 1
    18    8   29 1
    19    9   10 1
    20   10   15 ar
    21   10   11 ar
    22   11   12 ar
    23   11   30 1
    24   12   13 ar
    25   12   31 1
    26   13   14 ar
    27   13   20 1
    28   14   19 ar
    29   14   15 ar
    30   15   16 ar
    31   16   17 ar
    32   16   32 1
    33   17   18 ar
    34   17   33 1
    35   18   19 ar
    36   18   34 1
    37   20   35 1
    38   20   36 1
