@<TRIPOS>MOLECULE
ZINC38546765
   60    63     0     0     0
SMALL
USER_CHARGES

@<TRIPOS>ATOM
      1 C1          0.1020    1.6944   -0.1324 C.3       1 <0>        -0.1886
      2 C2          0.0887    0.1647   -0.1110 C.3       1 <0>        -0.0109
      3 N1          0.7689   -0.3477   -1.3080 N.4       1 <0>        -0.3864
      4 C3          2.1875    0.0308   -1.2643 C.3       1 <0>        -0.0088
      5 C4          2.8925   -0.4866   -2.5201 C.3       1 <0>         0.0217
      6 N2          2.7597   -1.9488   -2.5858 N.3       1 <0>        -0.5478
      7 C5          1.3442   -2.3440   -2.6050 C.3       1 <0>         0.0231
      8 C6          0.6519   -1.8113   -1.3485 C.3       1 <0>        -0.0045
      9 C7          3.4733   -2.4905   -3.7500 C.3       1 <0>         0.1915
     10 H1          3.0594   -2.0606   -4.6622 H         1 <0>         0.0802
     11 C8          4.9360   -2.1422   -3.6493 C.ar      1 <0>        -0.0873
     12 C9          5.5551   -2.1090   -2.4138 C.ar      1 <0>        -0.1070
     13 C10         6.8968   -1.7895   -2.3214 C.ar      1 <0>        -0.1175
     14 C11         7.6196   -1.5038   -3.4646 C.ar      1 <0>        -0.1099
     15 C12         7.0007   -1.5379   -4.7002 C.ar      1 <0>        -0.1108
     16 C13         5.6600   -1.8616   -4.7929 C.ar      1 <0>        -0.1053
     17 C14         3.3148   -3.9888   -3.7839 C.2       1 <0>        -0.1711
     18 C15         3.0668   -4.6437   -4.9763 C.2       1 <0>        -0.1046
     19 C16         2.9301   -5.9914   -4.9713 C.2       1 <0>        -0.1772
     20 S1          3.1527   -6.3825   -3.2439 S.3       1 <0>         0.1585
     21 C17         3.4189   -4.7233   -2.6410 C.2       1 <0>         0.0923
     22 N3          3.6674   -4.2906   -1.3367 N.am      1 <0>        -0.6131
     23 C18         3.8550   -5.1916   -0.3520 C.2       1 <0>         0.5946
     24 O1          3.8077   -6.3825   -0.5996 O.2       1 <0>        -0.4846
     25 C19         4.1159   -4.7374    1.0167 C.2       1 <0>        -0.2652
     26 C20         4.3394   -5.4901    2.1598 C.2       1 <0>        -0.0454
     27 C21         4.5579   -4.7744    3.3125 C.2       1 <0>        -0.1810
     28 C22         4.5415   -3.4196    3.2602 C.2       1 <0>        -0.2012
     29 S2          4.2363   -3.0734    1.6448 S.3       1 <0>         0.1748
     30 C23         2.6598   -6.9208   -6.1264 C.3       1 <0>        -0.0708
     31 C24         2.9497   -3.8687   -6.2634 C.3       1 <0>        -0.1005
     32 H2          1.1328    2.0487   -0.1441 H         1 <0>         0.0806
     33 H3         -0.4145    2.0499   -1.0240 H         1 <0>         0.0802
     34 H4         -0.4027    2.0746    0.7558 H         1 <0>         0.1068
     35 H5          0.6052   -0.1908    0.7806 H         1 <0>         0.1300
     36 H6         -0.9421   -0.1896   -0.0993 H         1 <0>         0.1312
     37 H7          2.2726    1.1166   -1.2211 H         1 <0>         0.1401
     38 H8          2.6529   -0.4056   -0.3806 H         1 <0>         0.1362
     39 H9          2.4362   -0.0399   -3.4035 H         1 <0>         0.0676
     40 H10         3.9483   -0.2187   -2.4809 H         1 <0>         0.1296
     41 H11         0.8623   -1.9279   -3.4897 H         1 <0>         0.0690
     42 H12         1.2704   -3.4313   -2.6276 H         1 <0>         0.1267
     43 H13         1.1252   -2.2383   -0.4643 H         1 <0>         0.1339
     44 H14        -0.4014   -2.0912   -1.3676 H         1 <0>         0.1389
     45 H15         4.9904   -2.3322   -1.5206 H         1 <0>         0.1139
     46 H16         7.3804   -1.7628   -1.3560 H         1 <0>         0.1242
     47 H17         8.6677   -1.2535   -3.3923 H         1 <0>         0.1262
     48 H18         7.5653   -1.3143   -5.5933 H         1 <0>         0.1273
     49 H19         5.1774   -1.8919   -5.7586 H         1 <0>         0.1227
     50 H20         3.7051   -3.3416   -1.1395 H         1 <0>         0.4206
     51 H21         4.3413   -6.5700    2.1451 H         1 <0>         0.1566
     52 H22         4.7398   -5.2840    4.2472 H         1 <0>         0.1478
     53 H23         4.6937   -2.7224    4.0709 H         1 <0>         0.1948
     54 H24         3.6055   -7.2480   -6.5585 H         1 <0>         0.0802
     55 H25         2.1028   -7.7882   -5.7721 H         1 <0>         0.0740
     56 H26         2.0756   -6.3985   -6.8840 H         1 <0>         0.0810
     57 H27         3.9324   -3.7846   -6.7276 H         1 <0>         0.0715
     58 H28         2.2716   -4.3886   -6.9401 H         1 <0>         0.0713
     59 H29         2.5606   -2.8724   -6.0536 H         1 <0>         0.0584
     60 H30         0.3412    0.0466   -2.1324 H         1 <0>         0.4217
@<TRIPOS>BOND
     1    1    2 1
     2    1   32 1
     3    1   33 1
     4    1   34 1
     5    2    3 1
     6    2   35 1
     7    2   36 1
     8    3    8 1
     9    3    4 1
    10    3   60 1
    11    4    5 1
    12    4   37 1
    13    4   38 1
    14    5    6 1
    15    5   39 1
    16    5   40 1
    17    6    7 1
    18    6    9 1
    19    7    8 1
    20    7   41 1
    21    7   42 1
    22    8   43 1
    23    8   44 1
    24    9   10 1
    25    9   11 1
    26    9   17 1
    27   11   16 ar
    28   11   12 ar
    29   12   13 ar
    30   12   45 1
    31   13   14 ar
    32   13   46 1
    33   14   15 ar
    34   14   47 1
    35   15   16 ar
    36   15   48 1
    37   16   49 1
    38   17   21 2
    39   17   18 1
    40   18   19 2
    41   18   31 1
    42   19   20 1
    43   19   30 1
    44   20   21 1
    45   21   22 1
    46   22   23 am
    47   22   50 1
    48   23   24 2
    49   23   25 1
    50   25   29 1
    51   25   26 2
    52   26   27 1
    53   26   51 1
    54   27   28 2
    55   27   52 1
    56   28   29 1
    57   28   53 1
    58   30   54 1
    59   30   55 1
    60   30   56 1
    61   31   57 1
    62   31   58 1
    63   31   59 1
