@<TRIPOS>MOLECULE
ZINC62952807
   42    44     0     0     0
SMALL
USER_CHARGES

@<TRIPOS>ATOM
      1 C1         -0.0167    1.3781    0.0096 C.ar      1 <0>        -0.0514
      2 C2          1.1698    2.0893    0.0021 C.ar      1 <0>        -0.1235
      3 C3          2.3786    1.4189   -0.0135 C.ar      1 <0>         0.0724
      4 C4          2.3999    0.0279   -0.0212 C.ar      1 <0>         0.1726
      5 C5          1.2068   -0.6810   -0.0132 C.ar      1 <0>        -0.0770
      6 C6          0.0021   -0.0041    0.0020 C.ar      1 <0>        -0.6397
      7 S1         -1.5126   -0.9043    0.0117 S.o2      1 <0>         2.6919
      8 O1         -1.2203   -2.1852    0.5529 O.2       1 <0>        -0.9523
      9 O2         -2.4926   -0.0442    0.5765 O.2       1 <0>        -0.9502
     10 N1         -1.9486   -1.1459   -1.5675 N.pl3     1 <0>        -0.9932
     11 C7         -2.7866   -0.1652   -2.2710 C.3       1 <0>         0.1148
     12 C8         -4.0046   -0.8878   -2.8561 C.3       1 <0>        -0.1185
     13 C9         -3.5345   -2.0584   -3.7169 C.3       1 <0>        -0.0600
     14 C10        -2.6761   -1.5423   -4.8814 C.3       1 <0>        -0.1186
     15 C11        -3.4016   -1.9582   -6.1786 C.3       1 <0>        -0.1255
     16 C12        -4.8790   -2.1356   -5.7478 C.3       1 <0>        -0.1254
     17 C13        -4.7516   -2.7681   -4.3390 C.3       1 <0>        -0.1168
     18 C14        -2.7331   -3.0501   -2.8766 C.3       1 <0>        -0.1191
     19 C15        -1.4997   -2.3421   -2.2932 C.3       1 <0>         0.1150
     20 N2          3.6205   -0.6543   -0.0375 N.pl3     1 <0>        -0.8704
     21 F1          3.5374    2.1134   -0.0217 F         1 <0>        -0.1335
     22 H1         -0.9599    1.9039    0.0260 H         1 <0>         0.1475
     23 H2          1.1516    3.1691    0.0081 H         1 <0>         0.1467
     24 H3          1.2198   -1.7609   -0.0195 H         1 <0>         0.1472
     25 H4         -3.1181    0.6015   -1.5707 H         1 <0>         0.0946
     26 H5         -2.2132    0.2950   -3.0757 H         1 <0>         0.0732
     27 H6         -4.6302   -1.2610   -2.0453 H         1 <0>         0.0704
     28 H7         -4.5794   -0.1936   -3.4691 H         1 <0>         0.0782
     29 H8         -2.5925   -0.4567   -4.8316 H         1 <0>         0.0669
     30 H9         -1.6857   -1.9960   -4.8453 H         1 <0>         0.0661
     31 H10        -3.3153   -1.1750   -6.9318 H         1 <0>         0.0629
     32 H11        -2.9989   -2.8980   -6.5564 H         1 <0>         0.0637
     33 H12        -5.3840   -1.1711   -5.6938 H         1 <0>         0.0660
     34 H13        -5.4013   -2.8087   -6.4275 H         1 <0>         0.0643
     35 H14        -4.5698   -3.8400   -4.4169 H         1 <0>         0.0676
     36 H15        -5.6485   -2.5738   -3.7509 H         1 <0>         0.0666
     37 H16        -3.3566   -3.4269   -2.0658 H         1 <0>         0.0707
     38 H17        -2.4107   -3.8811   -3.5040 H         1 <0>         0.0774
     39 H18        -0.8272   -2.0494   -3.0995 H         1 <0>         0.0729
     40 H19        -0.9817   -3.0126   -1.6075 H         1 <0>         0.0932
     41 H20         4.4537   -0.1576   -0.0434 H         1 <0>         0.4054
     42 H21         3.6340   -1.6242   -0.0428 H         1 <0>         0.4068
@<TRIPOS>BOND
     1    1    6 ar
     2    1    2 ar
     3    1   22 1
     4    2    3 ar
     5    2   23 1
     6    3    4 ar
     7    3   21 1
     8    4    5 ar
     9    4   20 1
    10    5    6 ar
    11    5   24 1
    12    6    7 1
    13    7    8 2
    14    7    9 2
    15    7   10 1
    16   10   19 1
    17   10   11 1
    18   11   12 1
    19   11   25 1
    20   11   26 1
    21   12   13 1
    22   12   27 1
    23   12   28 1
    24   13   17 1
    25   13   14 1
    26   13   18 1
    27   14   15 1
    28   14   29 1
    29   14   30 1
    30   15   16 1
    31   15   31 1
    32   15   32 1
    33   16   17 1
    34   16   33 1
    35   16   34 1
    36   17   35 1
    37   17   36 1
    38   18   19 1
    39   18   37 1
    40   18   38 1
    41   19   39 1
    42   19   40 1
    43   20   41 1
    44   20   42 1
