@<TRIPOS>MOLECULE
ZINC01002420
   61    65     0     0     0
SMALL
USER_CHARGES
(4R,7R)-2-methyl-N-(5-methyl-2-pyridyl)-4-(3-methyl-2-thienyl)-5-oxo-7-phenyl-4,6,7,8-tetrahydro-1H-quinoline-3-carboxamide
@<TRIPOS>ATOM
      1 C1          0.5010    5.4045   -7.5212 C.3       1 <0>        -0.1082
      2 C2          0.0814    4.9285   -6.1543 C.ar      1 <0>        -0.1660
      3 C3         -1.1870    4.4000   -5.9544 C.ar      1 <0>        -0.0605
      4 C4         -1.5303    3.9698   -4.6852 C.ar      1 <0>        -0.1861
      5 C5         -0.6027    4.0909   -3.6561 C.ar      1 <0>         0.3511
      6 N1          0.5970    4.6005   -3.8867 N.ar      1 <0>        -0.5122
      7 C6          0.9540    5.0138   -5.0878 C.ar      1 <0>         0.1243
      8 N2         -0.9372    3.6670   -2.3721 N.am      1 <0>        -0.6656
      9 C7         -1.9405    2.7848   -2.1937 C.2       1 <0>         0.5847
     10 O1         -2.5956    2.4068   -3.1478 O.2       1 <0>        -0.5336
     11 C8         -2.2327    2.2976   -0.8963 C.2       1 <0>        -0.2830
     12 C9         -3.1646    1.3421   -0.7458 C.2       1 <0>         0.2429
     13 N3         -3.4695    0.8607    0.4976 N.pl3     1 <0>        -0.6424
     14 C10        -3.1530    1.5775    1.6201 C.2       1 <0>         0.2290
     15 C11        -2.2189    2.5509    1.5704 C.2       1 <0>        -0.2818
     16 C12        -1.4948    2.8584    0.2838 C.3       1 <0>         0.1219
     17 H1         -1.4340    3.9503    0.1656 H         1 <0>         0.0952
     18 C13        -0.1147    2.2556    0.3366 C.2       1 <0>        -0.1344
     19 C14         1.0843    2.8769    0.4542 C.2       1 <0>        -0.1125
     20 C15         2.2359    2.1128    0.4763 C.2       1 <0>        -0.1456
     21 C16         2.1323    0.7648    0.3797 C.2       1 <0>        -0.1783
     22 S1          0.3661    0.5383    0.2524 S.3       1 <0>         0.0264
     23 C17         1.1605    4.3783    0.5589 C.3       1 <0>        -0.1090
     24 C18        -1.8956    3.3051    2.7119 C.2       1 <0>         0.4052
     25 O2         -1.0424    4.1669    2.6356 O.2       1 <0>        -0.4631
     26 C19        -2.5866    3.0642    4.0263 C.3       1 <0>        -0.1594
     27 C20        -3.9943    2.5221    3.7574 C.3       1 <0>        -0.0341
     28 H2         -4.6057    3.2758    3.2396 H         1 <0>         0.0926
     29 C21        -3.8727    1.2560    2.9064 C.3       1 <0>        -0.0914
     30 C22        -4.6676    2.1909    5.0644 C.ar      1 <0>        -0.0834
     31 C23        -4.1107    1.2495    5.9096 C.ar      1 <0>        -0.1142
     32 C24        -4.7259    0.9489    7.1105 C.ar      1 <0>        -0.1167
     33 C25        -5.9031    1.5828    7.4617 C.ar      1 <0>        -0.1187
     34 C26        -6.4625    2.5207    6.6142 C.ar      1 <0>        -0.1167
     35 C27        -5.8450    2.8244    5.4153 C.ar      1 <0>        -0.1114
     36 C28        -3.8798    0.7974   -1.9553 C.3       1 <0>        -0.1155
     37 H3         -0.3255    5.2543   -8.2314 H         1 <0>         0.0660
     38 H4          1.3796    4.8329   -7.8548 H         1 <0>         0.0704
     39 H5          0.7551    6.4738   -7.4751 H         1 <0>         0.0707
     40 H6         -1.8881    4.3225   -6.7722 H         1 <0>         0.1346
     41 H7         -2.5068    3.5494   -4.4952 H         1 <0>         0.1732
     42 H8          1.9414    5.4245   -5.2385 H         1 <0>         0.1568
     43 H9         -0.3826    4.0522   -1.5038 H         1 <0>         0.4352
     44 H10        -3.9739   -0.1112    0.6026 H         1 <0>         0.4469
     45 H11         3.2038    2.5829    0.5695 H         1 <0>         0.1320
     46 H12         2.9152    0.0208    0.3794 H         1 <0>         0.1824
     47 H13         2.2127    4.6868    0.6464 H         1 <0>         0.0640
     48 H14         0.6053    4.7125    1.4478 H         1 <0>         0.0961
     49 H15         0.7191    4.8315   -0.3410 H         1 <0>         0.0549
     50 H16        -2.0129    2.3320    4.6134 H         1 <0>         0.1031
     51 H17        -2.6534    4.0099    4.5842 H         1 <0>         0.1011
     52 H18        -4.8776    0.8714    2.6780 H         1 <0>         0.0966
     53 H19        -3.3065    0.4947    3.4630 H         1 <0>         0.1040
     54 H20        -3.1931    0.7513    5.6334 H         1 <0>         0.1220
     55 H21        -4.2886    0.2164    7.7728 H         1 <0>         0.1231
     56 H22        -6.3856    1.3455    8.3983 H         1 <0>         0.1224
     57 H23        -7.3823    3.0159    6.8886 H         1 <0>         0.1234
     58 H24        -6.2823    3.5570    4.7531 H         1 <0>         0.1229
     59 H25        -4.6012    0.0294   -1.6396 H         1 <0>         0.0616
     60 H26        -3.1474    0.3515   -2.6444 H         1 <0>         0.0996
     61 H27        -4.4127    1.6138   -2.4647 H         1 <0>         0.1074
@<TRIPOS>BOND
     1    1    2 1
     2    1   37 1
     3    1   38 1
     4    1   39 1
     5    2    7 ar
     6    2    3 ar
     7    3    4 ar
     8    3   40 1
     9    4    5 ar
    10    4   41 1
    11    5    6 ar
    12    5    8 1
    13    6    7 ar
    14    7   42 1
    15    8    9 am
    16    8   43 1
    17    9   10 2
    18    9   11 1
    19   11   16 1
    20   11   12 2
    21   12   13 1
    22   12   36 1
    23   13   14 1
    24   13   44 1
    25   14   29 1
    26   14   15 2
    27   15   16 1
    28   15   24 1
    29   16   17 1
    30   16   18 1
    31   18   22 1
    32   18   19 2
    33   19   20 1
    34   19   23 1
    35   20   21 2
    36   20   45 1
    37   21   22 1
    38   21   46 1
    39   23   47 1
    40   23   48 1
    41   23   49 1
    42   24   25 2
    43   24   26 1
    44   26   27 1
    45   26   50 1
    46   26   51 1
    47   27   28 1
    48   27   29 1
    49   27   30 1
    50   29   52 1
    51   29   53 1
    52   30   35 ar
    53   30   31 ar
    54   31   32 ar
    55   31   54 1
    56   32   33 ar
    57   32   55 1
    58   33   34 ar
    59   33   56 1
    60   34   35 ar
    61   34   57 1
    62   35   58 1
    63   36   59 1
    64   36   60 1
    65   36   61 1
