@<TRIPOS>MOLECULE
ZINC23192410
   60    62     0     0     0
SMALL
USER_CHARGES
(3S)-N'-[(2R)-2-(2-chlorophenyl)-2-dimethylamino-ethyl]-N-phenyl-piperidine-1,3-dicarboxamide
@<TRIPOS>ATOM
      1 C1         -5.9065    7.1399    0.4983 C.3       1 <0>        -0.0574
      2 N1         -6.1952    5.9420    1.2980 N.4       1 <0>        -0.3963
      3 C2         -6.6424    6.3060    2.6491 C.3       1 <0>        -0.0578
      4 C3         -7.1850    5.0878    0.6282 C.3       1 <0>         0.0699
      5 H1         -6.8278    4.9017   -0.3954 H         1 <0>         0.1527
      6 C4         -7.3349    3.7769    1.4028 C.3       1 <0>         0.1014
      7 N2         -6.0219    3.1441    1.5505 N.am      1 <0>        -0.7629
      8 C5         -5.9090    1.9706    2.2037 C.2       1 <0>         0.5320
      9 O1         -6.8944    1.4384    2.6691 O.2       1 <0>        -0.5078
     10 C6         -4.5583    1.3197    2.3556 C.3       1 <0>        -0.1210
     11 H2         -3.8974    2.0075    2.9035 H         1 <0>         0.1068
     12 C7         -4.7075    0.0084    3.1304 C.3       1 <0>        -0.1035
     13 C8         -3.3321   -0.6371    3.3138 C.3       1 <0>        -0.1368
     14 C9         -2.7334   -0.9529    1.9395 C.3       1 <0>         0.1039
     15 N3         -2.7205    0.2767    1.1354 N.am      1 <0>        -0.6242
     16 C10        -3.9723    1.0291    0.9751 C.3       1 <0>         0.1397
     17 C11        -1.5809    0.7093    0.5603 C.2       1 <0>         0.7146
     18 O2         -1.5623    1.7737   -0.0270 O.2       1 <0>        -0.5800
     19 N4         -0.4619   -0.0381    0.6363 N.am      1 <0>        -0.6960
     20 C12         0.7448    0.4551    0.1274 C.ar      1 <0>         0.1592
     21 C13         0.7478    1.2406   -1.0177 C.ar      1 <0>        -0.1219
     22 C14         1.9399    1.7307   -1.5141 C.ar      1 <0>        -0.1026
     23 C15         3.1307    1.4304   -0.8785 C.ar      1 <0>        -0.1334
     24 C16         3.1316    0.6438    0.2587 C.ar      1 <0>        -0.0996
     25 C17         1.9424    0.1554    0.7634 C.ar      1 <0>        -0.1461
     26 C18        -8.5130    5.7988    0.5823 C.ar      1 <0>        -0.1387
     27 C19        -9.4459    5.5860    1.5799 C.ar      1 <0>        -0.0857
     28 C20       -10.6641    6.2377    1.5376 C.ar      1 <0>        -0.1027
     29 C21       -10.9500    7.1033    0.4981 C.ar      1 <0>        -0.0699
     30 C22       -10.0180    7.3171   -0.4996 C.ar      1 <0>        -0.0995
     31 C23        -8.7964    6.6687   -0.4553 C.ar      1 <0>        -0.0207
     32 Cl1        -7.6223    6.9423   -1.7044 Cl        1 <0>        -0.0498
     33 H3         -5.5745    6.8389   -0.5063 H         1 <0>         0.1265
     34 H4         -5.1130    7.7244    0.9869 H         1 <0>         0.1303
     35 H5         -6.8158    7.7534    0.4155 H         1 <0>         0.1220
     36 H6         -6.8511    5.3922    3.2248 H         1 <0>         0.1246
     37 H7         -7.5568    6.9136    2.5814 H         1 <0>         0.1229
     38 H8         -5.8541    6.8847    3.1528 H         1 <0>         0.1306
     39 H9         -7.7557    3.9849    2.3976 H         1 <0>         0.0995
     40 H10        -8.0078    3.1016    0.8540 H         1 <0>         0.1168
     41 H11        -5.1281    3.6267    1.1283 H         1 <0>         0.4131
     42 H12        -5.1501    0.2134    4.1164 H         1 <0>         0.0794
     43 H13        -5.3614   -0.6762    2.5702 H         1 <0>         0.0780
     44 H14        -2.6704    0.0568    3.8530 H         1 <0>         0.0717
     45 H15        -3.4376   -1.5670    3.8919 H         1 <0>         0.0898
     46 H16        -1.7068   -1.3278    2.0642 H         1 <0>         0.0837
     47 H17        -3.3452   -1.7186    1.4402 H         1 <0>         0.0800
     48 H18        -4.6897    0.4351    0.3899 H         1 <0>         0.0754
     49 H19        -3.7711    1.9773    0.4551 H         1 <0>         0.0965
     50 H20        -0.4972   -1.0357    1.0983 H         1 <0>         0.4289
     51 H21        -0.1815    1.4715   -1.5173 H         1 <0>         0.1366
     52 H22         1.9424    2.3450   -2.4023 H         1 <0>         0.1249
     53 H23         4.0620    1.8108   -1.2714 H         1 <0>         0.1246
     54 H24         4.0634    0.4108    0.7527 H         1 <0>         0.1277
     55 H25         1.9438   -0.4592    1.6514 H         1 <0>         0.1243
     56 H26        -9.2230    4.9103    2.3924 H         1 <0>         0.1447
     57 H27       -11.3928    6.0709    2.3171 H         1 <0>         0.1461
     58 H28       -11.9021    7.6122    0.4656 H         1 <0>         0.1484
     59 H29       -10.2416    7.9930   -1.3117 H         1 <0>         0.1493
     60 H30        -5.2623    5.3671    1.3942 H         1 <0>         0.4375
@<TRIPOS>BOND
     1    1    2 1
     2    1   33 1
     3    1   34 1
     4    1   35 1
     5    2    3 1
     6    2    4 1
     7    2   60 1
     8    3   36 1
     9    3   37 1
    10    3   38 1
    11    4    5 1
    12    4    6 1
    13    4   26 1
    14    6    7 1
    15    6   39 1
    16    6   40 1
    17    7    8 am
    18    7   41 1
    19    8    9 2
    20    8   10 1
    21   10   11 1
    22   10   16 1
    23   10   12 1
    24   12   13 1
    25   12   42 1
    26   12   43 1
    27   13   14 1
    28   13   44 1
    29   13   45 1
    30   14   15 1
    31   14   46 1
    32   14   47 1
    33   15   16 1
    34   15   17 am
    35   16   48 1
    36   16   49 1
    37   17   18 2
    38   17   19 am
    39   19   20 1
    40   19   50 1
    41   20   25 ar
    42   20   21 ar
    43   21   22 ar
    44   21   51 1
    45   22   23 ar
    46   22   52 1
    47   23   24 ar
    48   23   53 1
    49   24   25 ar
    50   24   54 1
    51   25   55 1
    52   26   31 ar
    53   26   27 ar
    54   27   28 ar
    55   27   56 1
    56   28   29 ar
    57   28   57 1
    58   29   30 ar
    59   29   58 1
    60   30   31 ar
    61   30   59 1
    62   31   32 1
