@<TRIPOS>MOLECULE
ZINC35175147
   65    69     0     0     0
SMALL
USER_CHARGES

@<TRIPOS>ATOM
      1 C1         -0.3015    1.4896    0.0404 C.3       1 <0>        -0.1347
      2 C2         -0.1907   -0.0132    0.0230 C.2       1 <0>         0.0212
      3 C3         -0.3429   -0.7176   -1.1846 C.2       1 <0>        -0.1135
      4 C4         -0.2448   -2.0619   -1.2061 C.2       1 <0>         0.0682
      5 N1          0.0041   -2.7609   -0.0555 N.pl3     1 <0>        -0.3559
      6 C5          0.1576   -2.0989    1.1412 C.cat     1 <0>         0.3259
      7 C6          0.0624   -0.6914    1.1737 C.2       1 <0>        -0.1385
      8 N2          0.3868   -2.9919    2.0900 N.pl3     1 <0>        -0.4760
      9 C7          0.3880   -4.2239    1.5491 C.2       1 <0>         0.0204
     10 C8          0.1483   -4.0970    0.1972 C.2       1 <0>         0.3414
     11 N3          0.0677   -5.1334   -0.7344 N.pl3     1 <0>        -0.6948
     12 C9         -0.0542   -4.8274   -2.1619 C.3       1 <0>         0.1323
     13 C10        -1.5240   -4.5789   -2.5065 C.3       1 <0>        -0.1474
     14 C11        -1.6513   -4.2593   -3.9973 C.3       1 <0>        -0.1204
     15 C12        -1.1274   -5.4392   -4.8184 C.3       1 <0>        -0.1275
     16 C13         0.3424   -5.6877   -4.4738 C.3       1 <0>        -0.1182
     17 C14         0.4697   -6.0073   -2.9830 C.3       1 <0>        -0.1266
     18 C15         0.6089   -5.4949    2.2786 C.ar      1 <0>         0.0186
     19 C16         1.4654   -6.4620    1.7535 C.ar      1 <0>        -0.1201
     20 C17         1.6703   -7.6453    2.4337 C.ar      1 <0>        -0.0398
     21 C18         1.0257   -7.8757    3.6393 C.ar      1 <0>         0.0543
     22 C19         0.1694   -6.9140    4.1688 C.ar      1 <0>         0.1459
     23 C20        -0.0349   -5.7235    3.4942 C.ar      1 <0>        -0.1812
     24 O1         -0.4621   -7.1426    5.3513 O.3       1 <0>        -0.2913
     25 C21        -1.3262   -6.1125    5.8352 C.3       1 <0>         0.0191
     26 O2          1.2299   -9.0437    4.3059 O.3       1 <0>        -0.6448
     27 S1          2.3902   -9.0002    5.2899 S.o2      1 <0>         2.6717
     28 O3          2.5949  -10.3338    5.7356 O.2       1 <0>        -0.9138
     29 O4          3.4178   -8.2371    4.6726 O.2       1 <0>        -0.9481
     30 C22         1.8507   -8.0781    6.6911 C.ar      1 <0>        -0.6843
     31 C23         2.0297   -6.7078    6.7270 C.ar      1 <0>        -0.0042
     32 C24         1.6067   -5.9839    7.8259 C.ar      1 <0>        -0.1359
     33 C25         1.0041   -6.6310    8.8900 C.ar      1 <0>         0.0216
     34 C26         0.8253   -8.0024    8.8534 C.ar      1 <0>        -0.1276
     35 C27         1.2436   -8.7245    7.7516 C.ar      1 <0>         0.0099
     36 Cl1         0.4731   -5.7226   10.2707 Cl        1 <0>        -0.0474
     37 H1          0.6812    1.9285   -0.1322 H         1 <0>         0.1010
     38 H2         -0.9865    1.8125   -0.7436 H         1 <0>         0.0918
     39 H3         -0.6795    1.8148    1.0097 H         1 <0>         0.0898
     40 H4         -0.5398   -0.1787   -2.0996 H         1 <0>         0.1816
     41 H5         -0.3638   -2.5923   -2.1393 H         1 <0>         0.1997
     42 H6          0.1855   -0.1582    2.1048 H         1 <0>         0.1795
     43 H7          0.0925   -6.0562   -0.4366 H         1 <0>         0.4324
     44 H8          0.5290   -3.9361   -2.3935 H         1 <0>         0.0839
     45 H9         -2.1072   -5.4701   -2.2749 H         1 <0>         0.0833
     46 H10        -1.8972   -3.7383   -1.9215 H         1 <0>         0.0606
     47 H11        -2.6984   -4.0822   -4.2428 H         1 <0>         0.0768
     48 H12        -1.0681   -3.3680   -4.2289 H         1 <0>         0.0644
     49 H13        -1.7106   -6.3305   -4.5868 H         1 <0>         0.0691
     50 H14        -1.2181   -5.2115   -5.8805 H         1 <0>         0.0740
     51 H15         0.7156   -6.5283   -5.0588 H         1 <0>         0.0791
     52 H16         0.9256   -4.7965   -4.7054 H         1 <0>         0.0675
     53 H17         1.5169   -6.1844   -2.7375 H         1 <0>         0.0788
     54 H18        -0.1135   -6.8986   -2.7514 H         1 <0>         0.0795
     55 H19         1.9681   -6.2851    0.8141 H         1 <0>         0.1493
     56 H20         2.3339   -8.3933    2.0258 H         1 <0>         0.1636
     57 H21        -0.6954   -4.9747    3.9059 H         1 <0>         0.1484
     58 H22        -1.7648   -6.4219    6.7838 H         1 <0>         0.1131
     59 H23        -0.7534   -5.1966    5.9813 H         1 <0>         0.0620
     60 H24        -2.1195   -5.9330    5.1095 H         1 <0>         0.0651
     61 H25         2.5004   -6.2028    5.8965 H         1 <0>         0.1422
     62 H26         1.7469   -4.9134    7.8540 H         1 <0>         0.1423
     63 H27         0.3553   -8.5081    9.6839 H         1 <0>         0.1482
     64 H28         1.0998   -9.7944    7.7208 H         1 <0>         0.1529
     65 H29         0.5312   -2.7903    3.0278 H         1 <0>         0.4613
@<TRIPOS>BOND
     1    1    2 1
     2    1   37 1
     3    1   38 1
     4    1   39 1
     5    2    7 2
     6    2    3 1
     7    3    4 2
     8    3   40 1
     9    4    5 1
    10    4   41 1
    11    5   10 1
    12    5    6 1
    13    6    7 1
    14    6    8 2
    15    7   42 1
    16    8    9 1
    17    8   65 1
    18    9   10 2
    19    9   18 1
    20   10   11 1
    21   11   12 1
    22   11   43 1
    23   12   17 1
    24   12   13 1
    25   12   44 1
    26   13   14 1
    27   13   45 1
    28   13   46 1
    29   14   15 1
    30   14   47 1
    31   14   48 1
    32   15   16 1
    33   15   49 1
    34   15   50 1
    35   16   17 1
    36   16   51 1
    37   16   52 1
    38   17   53 1
    39   17   54 1
    40   18   23 ar
    41   18   19 ar
    42   19   20 ar
    43   19   55 1
    44   20   21 ar
    45   20   56 1
    46   21   22 ar
    47   21   26 1
    48   22   23 ar
    49   22   24 1
    50   23   57 1
    51   24   25 1
    52   25   58 1
    53   25   59 1
    54   25   60 1
    55   26   27 1
    56   27   28 2
    57   27   29 2
    58   27   30 1
    59   30   35 ar
    60   30   31 ar
    61   31   32 ar
    62   31   61 1
    63   32   33 ar
    64   32   62 1
    65   33   34 ar
    66   33   36 1
    67   34   35 ar
    68   34   63 1
    69   35   64 1
