@<TRIPOS>MOLECULE
ZINC14255021
   36    37     0     0     0
SMALL
USER_CHARGES
N-(3,4-dichlorophenyl)-4-isopropyl-benzenesulfonamide
@<TRIPOS>ATOM
      1 C1          4.2097   -2.6310    4.6575 C.3       1 <0>        -0.1468
      2 C2          3.3686   -1.3862    4.9471 C.3       1 <0>        -0.0675
      3 C3          4.2919   -0.2149    5.2883 C.3       1 <0>        -0.1462
      4 C4          2.5473   -1.0409    3.7317 C.ar      1 <0>        -0.0126
      5 C5          1.1676   -1.0155    3.8141 C.ar      1 <0>        -0.1377
      6 C6          0.4143   -0.6979    2.6995 C.ar      1 <0>        -0.0123
      7 C7          1.0407   -0.4052    1.5024 C.ar      1 <0>        -0.6835
      8 C8          2.4201   -0.4357    1.4186 C.ar      1 <0>        -0.0141
      9 C9          3.1736   -0.7491    2.5344 C.ar      1 <0>        -0.1359
     10 S1          0.0805   -0.0003    0.0816 S.o2      1 <0>         2.6898
     11 O1         -1.2380   -0.4648    0.3366 O.2       1 <0>        -0.9449
     12 O2          0.8311   -0.4211   -1.0492 O.2       1 <0>        -0.9438
     13 N1         -0.0065    1.6516    0.0039 N.pl3     1 <0>        -1.0551
     14 C10        -0.6335    2.3672    1.0274 C.ar      1 <0>         0.1632
     15 C11        -1.8609    1.9436    1.5216 C.ar      1 <0>        -0.1371
     16 C12        -2.4759    2.6487    2.5373 C.ar      1 <0>        -0.0727
     17 C13        -1.8766    3.7833    3.0553 C.ar      1 <0>        -0.0408
     18 C14        -0.6562    4.2117    2.5609 C.ar      1 <0>        -0.0140
     19 C15        -0.0335    3.5059    1.5484 C.ar      1 <0>        -0.1114
     20 Cl1         0.0926    5.6356    3.2132 Cl        1 <0>        -0.0389
     21 Cl2        -2.6559    4.6708    4.3277 Cl        1 <0>        -0.0418
     22 H1          4.8726   -2.4336    3.8151 H         1 <0>         0.0594
     23 H2          4.8037   -2.8808    5.5366 H         1 <0>         0.0642
     24 H3          3.5519   -3.4655    4.4144 H         1 <0>         0.0583
     25 H4          2.7056   -1.5836    5.7895 H         1 <0>         0.0843
     26 H5          4.8859   -0.4646    6.1675 H         1 <0>         0.0640
     27 H6          4.9548   -0.0175    4.4460 H         1 <0>         0.0591
     28 H7          3.6926    0.6719    5.4947 H         1 <0>         0.0581
     29 H8          0.6783   -1.2435    4.7495 H         1 <0>         0.1342
     30 H9         -0.6636   -0.6780    2.7639 H         1 <0>         0.1421
     31 H10         2.9093   -0.2114    0.4822 H         1 <0>         0.1394
     32 H11         4.2515   -0.7686    2.4700 H         1 <0>         0.1339
     33 H12         0.3814    2.1228   -0.7501 H         1 <0>         0.4316
     34 H13        -2.3315    1.0607    1.1149 H         1 <0>         0.1728
     35 H14        -3.4278    2.3167    2.9248 H         1 <0>         0.1532
     36 H15         0.9183    3.8401    1.1627 H         1 <0>         0.1496
@<TRIPOS>BOND
     1    1    2 1
     2    1   22 1
     3    1   23 1
     4    1   24 1
     5    2    3 1
     6    2    4 1
     7    2   25 1
     8    3   26 1
     9    3   27 1
    10    3   28 1
    11    4    9 ar
    12    4    5 ar
    13    5    6 ar
    14    5   29 1
    15    6    7 ar
    16    6   30 1
    17    7    8 ar
    18    7   10 1
    19    8    9 ar
    20    8   31 1
    21    9   32 1
    22   10   11 2
    23   10   12 2
    24   10   13 1
    25   13   14 1
    26   13   33 1
    27   14   19 ar
    28   14   15 ar
    29   15   16 ar
    30   15   34 1
    31   16   17 ar
    32   16   35 1
    33   17   18 ar
    34   17   21 1
    35   18   19 ar
    36   18   20 1
    37   19   36 1
