@<TRIPOS>MOLECULE
ZINC24852951
   54    56     0     0     0
SMALL
USER_CHARGES
2-[[4-(4-chlorophenyl)-5-thioxo-1,3,4-thiadiazol-2-yl]sulfanyl]-N-[(2R)-2-diethylamino-2-(2-furyl)ethyl]acetamide
@<TRIPOS>ATOM
      1 C1          0.1278    5.5384   -1.3178 C.3       1 <0>        -0.1860
      2 C2          0.1258    4.1977   -0.5806 C.3       1 <0>        -0.0198
      3 N1         -1.1673    3.5303   -0.7816 N.4       1 <0>        -0.4021
      4 C3         -1.2994    3.0432   -2.1611 C.3       1 <0>        -0.0163
      5 C4         -2.7762    2.7954   -2.4753 C.3       1 <0>        -0.1907
      6 C5         -1.3510    2.4373    0.1825 C.3       1 <0>         0.1274
      7 H1         -2.2735    1.9034   -0.0893 H         1 <0>         0.1670
      8 C6         -1.4486    3.0150    1.5959 C.3       1 <0>         0.1005
      9 N2         -2.5112    4.0225    1.6393 N.am      1 <0>        -0.7556
     10 C7         -2.7125    4.7417    2.7612 C.2       1 <0>         0.5510
     11 O1         -2.0139    4.5548    3.7349 O.2       1 <0>        -0.4908
     12 C8         -3.8056    5.7782    2.8059 C.3       1 <0>        -0.2012
     13 S1         -3.8228    6.5671    4.4349 S.3       1 <0>         0.1974
     14 C9         -5.1548    7.6988    4.2126 C.2       1 <0>         0.0424
     15 N3         -5.6554    8.5593    5.0627 N.2       1 <0>        -0.2297
     16 N4         -6.7057    9.3701    4.6980 N.pl3     1 <0>        -0.2997
     17 C10        -7.2163    9.2499    3.4468 C.2       1 <0>         0.2385
     18 S2         -8.5078   10.1009    2.7129 S.2       1 <0>        -0.3390
     19 S3         -6.1765    7.9634    2.7722 S.3       1 <0>         0.0359
     20 C11        -7.2401   10.2956    5.6012 C.ar      1 <0>         0.1087
     21 C12        -7.7114   11.5203    5.1454 C.ar      1 <0>        -0.0790
     22 C13        -8.2435   12.4295    6.0382 C.ar      1 <0>        -0.0924
     23 C14        -8.2970   12.1261    7.3875 C.ar      1 <0>        -0.0170
     24 C15        -7.8230   10.9091    7.8451 C.ar      1 <0>        -0.1003
     25 C16        -7.2950    9.9938    6.9560 C.ar      1 <0>        -0.0776
     26 Cl1        -8.9596   13.2746    8.5081 Cl        1 <0>        -0.0486
     27 C17        -0.1767    1.4960    0.1046 C.2       1 <0>        -0.1034
     28 C18        -0.2471    0.1544    0.0369 C.2       1 <0>        -0.1246
     29 C19         1.0822   -0.3228   -0.0271 C.2       1 <0>        -0.2128
     30 C20         1.8854    0.7557    0.0053 C.2       1 <0>         0.0099
     31 O2          1.1174    1.8546    0.0850 O.3       1 <0>        -0.1757
     32 H2          1.0961    6.0381   -1.1673 H         1 <0>         0.1093
     33 H3         -0.6784    6.1747   -0.9238 H         1 <0>         0.0797
     34 H4         -0.0329    5.3662   -2.3923 H         1 <0>         0.0810
     35 H5          0.9320    3.5614   -0.9746 H         1 <0>         0.1395
     36 H6          0.2865    4.3698    0.4939 H         1 <0>         0.1308
     37 H7         -0.8980    3.7958   -2.8557 H         1 <0>         0.1372
     38 H8         -0.7380    2.1040   -2.2737 H         1 <0>         0.1301
     39 H9         -2.8751    2.4306   -3.5083 H         1 <0>         0.1120
     40 H10        -3.3376    3.7346   -2.3627 H         1 <0>         0.0836
     41 H11        -3.1776    2.0428   -1.7807 H         1 <0>         0.0789
     42 H12        -1.6793    2.2079    2.3068 H         1 <0>         0.1213
     43 H13        -0.4902    3.4809    1.8686 H         1 <0>         0.1061
     44 H14        -3.1448    4.1920    0.7562 H         1 <0>         0.4184
     45 H15        -3.6220    6.5383    2.0323 H         1 <0>         0.1370
     46 H16        -4.7767    5.2952    2.6221 H         1 <0>         0.1399
     47 H17        -7.6658   11.7594    4.0931 H         1 <0>         0.1588
     48 H18        -8.6139   13.3801    5.6839 H         1 <0>         0.1511
     49 H19        -7.8656   10.6751    8.8986 H         1 <0>         0.1488
     50 H20        -6.9249    9.0444    7.3137 H         1 <0>         0.1433
     51 H21        -1.1465   -0.4435    0.0319 H         1 <0>         0.1624
     52 H22         1.3931   -1.3552   -0.0896 H         1 <0>         0.1647
     53 H23         2.9648    0.7405   -0.0270 H         1 <0>         0.2192
     54 H24        -1.9611    4.2716   -0.6075 H         1 <0>         0.4306
@<TRIPOS>BOND
     1    1    2 1
     2    1   32 1
     3    1   33 1
     4    1   34 1
     5    2    3 1
     6    2   35 1
     7    2   36 1
     8    3    4 1
     9    3    6 1
    10    3   54 1
    11    4    5 1
    12    4   37 1
    13    4   38 1
    14    5   39 1
    15    5   40 1
    16    5   41 1
    17    6    7 1
    18    6    8 1
    19    6   27 1
    20    8    9 1
    21    8   42 1
    22    8   43 1
    23    9   10 am
    24    9   44 1
    25   10   11 2
    26   10   12 1
    27   12   13 1
    28   12   45 1
    29   12   46 1
    30   13   14 1
    31   14   19 1
    32   14   15 2
    33   15   16 1
    34   16   17 1
    35   16   20 1
    36   17   18 2
    37   17   19 1
    38   20   25 ar
    39   20   21 ar
    40   21   22 ar
    41   21   47 1
    42   22   23 ar
    43   22   48 1
    44   23   24 ar
    45   23   26 1
    46   24   25 ar
    47   24   49 1
    48   25   50 1
    49   27   31 1
    50   27   28 2
    51   28   29 1
    52   28   51 1
    53   29   30 2
    54   29   52 1
    55   30   31 1
    56   30   53 1
