@<TRIPOS>MOLECULE
ZINC59349852
   44    48     0     0     0
SMALL
USER_CHARGES

@<TRIPOS>ATOM
      1 C1          1.1511   -0.5276    0.5807 C.ar      1 <0>        -0.1187
      2 C2          2.3337    0.1645    0.5776 C.ar      1 <0>        -0.0649
      3 C3          2.4247    1.4404   -0.0242 C.ar      1 <0>         0.1134
      4 C4          1.2403    1.9431   -0.6095 C.ar      1 <0>        -0.1435
      5 C5          0.0578    1.2483   -0.6046 C.ar      1 <0>        -0.0544
      6 C6          0.0017   -0.0035   -0.0051 C.ar      1 <0>         0.1420
      7 N1         -1.1965   -0.7298    0.0100 N.am      1 <0>        -0.6674
      8 C7         -2.3741   -0.0847    0.1268 C.2       1 <0>         0.5230
      9 O1         -2.4033    1.1278    0.1338 O.2       1 <0>        -0.5148
     10 C8         -3.6545   -0.8700    0.2488 C.3       1 <0>        -0.0664
     11 C9         -3.5929   -1.7556    1.4950 C.3       1 <0>        -0.1011
     12 C10        -4.8929   -2.5529    1.6188 C.3       1 <0>        -0.0839
     13 C11        -6.0739   -1.5874    1.7371 C.3       1 <0>        -0.1111
     14 C12        -6.1355   -0.7019    0.4909 C.3       1 <0>        -0.0867
     15 C13        -4.8355    0.0954    0.3671 C.3       1 <0>        -0.0883
     16 C14        -6.3160   -1.5790   -0.7496 C.3       1 <0>        -0.1110
     17 C15        -5.1350   -2.5444   -0.8679 C.3       1 <0>        -0.0837
     18 C16        -5.0734   -3.4300    0.3782 C.3       1 <0>        -0.1104
     19 C17        -3.8350   -1.7471   -0.9918 C.3       1 <0>        -0.1022
     20 S1          1.7671    3.5202   -1.2360 S.3       1 <0>        -0.0120
     21 C18         3.4690    3.4183   -0.7004 C.2       1 <0>         0.4135
     22 N2          3.5080    2.2453   -0.1117 N.2       1 <0>        -0.5820
     23 N3          4.4849    4.3388   -0.8645 N.pl3     1 <0>        -0.7928
     24 H1          1.1108   -1.5026    1.0437 H         1 <0>         0.1354
     25 H2          3.2071   -0.2700    1.0410 H         1 <0>         0.1361
     26 H3         -0.8235    1.6713   -1.0638 H         1 <0>         0.1464
     27 H4         -1.1784   -1.6968   -0.0637 H         1 <0>         0.4125
     28 H5         -2.7515   -2.4434    1.4107 H         1 <0>         0.0671
     29 H6         -3.4643   -1.1307    2.3788 H         1 <0>         0.0698
     30 H7         -4.8490   -3.1837    2.5066 H         1 <0>         0.0758
     31 H8         -7.0000   -2.1554    1.8253 H         1 <0>         0.0653
     32 H9         -5.9453   -0.9626    2.6209 H         1 <0>         0.0638
     33 H10        -6.9769   -0.0141    0.5752 H         1 <0>         0.0754
     34 H11        -4.7069    0.7203    1.2509 H         1 <0>         0.0708
     35 H12        -4.8794    0.7263   -0.5207 H         1 <0>         0.0706
     36 H13        -7.2421   -2.1470   -0.6614 H         1 <0>         0.0654
     37 H14        -6.3599   -0.9481   -1.6374 H         1 <0>         0.0638
     38 H15        -5.2636   -3.1693   -1.7517 H         1 <0>         0.0758
     39 H16        -4.2320   -4.1177    0.2940 H         1 <0>         0.0638
     40 H17        -5.9995   -3.9980    0.4665 H         1 <0>         0.0662
     41 H18        -3.8789   -1.1162   -1.8795 H         1 <0>         0.0701
     42 H19        -2.9936   -2.4349   -1.0760 H         1 <0>         0.0667
     43 H20         4.3123    5.1745   -1.3257 H         1 <0>         0.4233
     44 H21         5.3712    4.1498   -0.5186 H         1 <0>         0.4191
@<TRIPOS>BOND
     1    1    6 ar
     2    1    2 ar
     3    1   24 1
     4    2    3 ar
     5    2   25 1
     6    3   22 1
     7    3    4 ar
     8    4    5 ar
     9    4   20 1
    10    5    6 ar
    11    5   26 1
    12    6    7 1
    13    7    8 am
    14    7   27 1
    15    8    9 2
    16    8   10 1
    17   10   15 1
    18   10   19 1
    19   10   11 1
    20   11   12 1
    21   11   28 1
    22   11   29 1
    23   12   18 1
    24   12   13 1
    25   12   30 1
    26   13   14 1
    27   13   31 1
    28   13   32 1
    29   14   15 1
    30   14   16 1
    31   14   33 1
    32   15   34 1
    33   15   35 1
    34   16   17 1
    35   16   36 1
    36   16   37 1
    37   17   18 1
    38   17   19 1
    39   17   38 1
    40   18   39 1
    41   18   40 1
    42   19   41 1
    43   19   42 1
    44   20   21 1
    45   21   22 2
    46   21   23 1
    47   23   43 1
    48   23   44 1
