@<TRIPOS>MOLECULE
ZINC63245261
   74    79     0     0     0
SMALL
USER_CHARGES

@<TRIPOS>ATOM
      1 C1         -0.0187    1.5258    0.0104 C.3       1 <0>        -0.1482
      2 C2          0.0021   -0.0041    0.0020 C.3       1 <0>         0.0511
      3 O1         -1.3386   -0.4987    0.0122 O.3       1 <0>        -0.3069
      4 C3         -1.4985   -1.8494    0.0064 C.ar      1 <0>         0.1221
      5 C4         -0.3899   -2.6796   -0.0029 C.ar      1 <0>        -0.2062
      6 C5         -0.5539   -4.0527   -0.0092 C.ar      1 <0>        -0.0788
      7 C6         -1.8231   -4.6010   -0.0058 C.ar      1 <0>        -0.1496
      8 C7         -2.9346   -3.7794    0.0040 C.ar      1 <0>        -0.0852
      9 C8         -2.7777   -2.4011    0.0157 C.ar      1 <0>         0.1311
     10 N1         -3.9015   -1.5670    0.0314 N.pl3     1 <0>        -0.6641
     11 C9         -4.5236   -1.1148   -1.2223 C.3       1 <0>         0.1555
     12 C10        -6.0259   -1.4093   -1.1542 C.3       1 <0>         0.0454
     13 N2         -6.5838   -0.8124    0.0667 N.3       1 <0>        -0.5585
     14 C11        -5.9953   -1.4138    1.2708 C.3       1 <0>         0.0392
     15 C12        -4.4954   -1.1244    1.3021 C.3       1 <0>         0.1589
     16 C13        -8.0485   -0.9232    0.0849 C.3       1 <0>         0.2963
     17 N3         -8.6079    0.1361    0.9282 N.pl3     1 <0>        -0.4144
     18 C14        -9.0964   -0.0545    2.1607 C.2       1 <0>         0.5257
     19 S1         -9.1458   -1.5723    2.9511 S.2       1 <0>        -0.5249
     20 N4         -9.5433    1.0938    2.7013 N.pl3     1 <0>        -0.5872
     21 C15        -9.3181    2.1514    1.7031 C.3       1 <0>         0.3172
     22 H1        -10.2646    2.6026    1.4054 H         1 <0>         0.1582
     23 N5         -8.6946    1.4493    0.5637 N.3       1 <0>        -0.4162
     24 C16        -8.3839    3.2007    2.2484 C.2       1 <0>        -0.0083
     25 C17        -8.6501    4.5153    2.4221 C.ar      1 <0>        -0.1228
     26 C18        -9.8429    5.3309    2.1642 C.ar      1 <0>        -0.0239
     27 C19        -9.8070    6.6531    2.4460 C.ar      1 <0>        -0.1361
     28 C20        -8.6618    7.2628    2.9766 C.ar      1 <0>         0.0574
     29 C21        -7.5279    6.5797    3.2405 C.ar      1 <0>        -0.2065
     30 C22        -7.4538    5.1830    2.9831 C.ar      1 <0>         0.3299
     31 N6         -6.4857    4.3148    3.1498 N.pl3     1 <0>        -0.5676
     32 C23        -6.9611    2.9955    2.7184 C.3       1 <0>         0.0584
     33 C24       -10.1401    1.2593    4.0289 C.3       1 <0>         0.1376
     34 C25        -9.0403    1.5641    5.0480 C.3       1 <0>         0.0593
     35 H2         -8.5088    2.4740    4.7693 H         1 <0>         0.0482
     36 C26        -9.6467    1.7086    6.4666 C.3       1 <0>        -0.1472
     37 C27        -8.4175    1.3599    7.3495 C.3       1 <0>        -0.1546
     38 C28        -7.6923    0.2970    6.4964 C.3       1 <0>         0.0487
     39 O2         -8.1255    0.4604    5.1395 O.3       1 <0>        -0.3516
     40 H3          1.0039    1.9031    0.0027 H         1 <0>         0.0793
     41 H4         -0.5459    1.8868   -0.8726 H         1 <0>         0.0644
     42 H5         -0.5289    1.8773    0.9072 H         1 <0>         0.0606
     43 H6          0.5123   -0.3556   -0.8948 H         1 <0>         0.0622
     44 H7          0.5293   -0.3651    0.8851 H         1 <0>         0.0606
     45 H8          0.6029   -2.2545   -0.0056 H         1 <0>         0.1276
     46 H9          0.3117   -4.6984   -0.0172 H         1 <0>         0.1268
     47 H10        -1.9463   -5.6740   -0.0111 H         1 <0>         0.1265
     48 H11        -3.9248   -4.2104    0.0062 H         1 <0>         0.1267
     49 H12        -4.3657   -0.0432   -1.3436 H         1 <0>         0.0544
     50 H13        -4.0833   -1.6502   -2.0634 H         1 <0>         0.0762
     51 H14        -6.5202   -0.9821   -2.0266 H         1 <0>         0.0862
     52 H15        -6.1847   -2.4875   -1.1373 H         1 <0>         0.0499
     53 H16        -6.4674   -0.9898    2.1570 H         1 <0>         0.0820
     54 H17        -6.1546   -2.4920    1.2539 H         1 <0>         0.0516
     55 H18        -4.0365   -1.6662    2.1291 H         1 <0>         0.0717
     56 H19        -4.3347   -0.0537    1.4281 H         1 <0>         0.0433
     57 H20        -8.4333   -0.8212   -0.9298 H         1 <0>         0.1115
     58 H21        -8.3343   -1.8957    0.4858 H         1 <0>         0.1126
     59 H22        -7.7824    1.8286    0.3582 H         1 <0>         0.3567
     60 H23       -10.7358    4.8818    1.7551 H         1 <0>         0.1652
     61 H24       -10.6835    7.2551    2.2570 H         1 <0>         0.1630
     62 H25        -8.6876    8.3227    3.1823 H         1 <0>         0.1652
     63 H26        -6.6722    7.0967    3.6491 H         1 <0>         0.1644
     64 H27        -6.9384    2.2944    3.5526 H         1 <0>         0.1780
     65 H28        -6.3444    2.6258    1.8991 H         1 <0>         0.1713
     66 H29       -10.8532    2.0833    4.0065 H         1 <0>         0.1057
     67 H30       -10.6544    0.3413    4.3131 H         1 <0>         0.1269
     68 H31        -9.9836    2.7292    6.6477 H         1 <0>         0.0848
     69 H32       -10.4567    0.9960    6.6220 H         1 <0>         0.0932
     70 H33        -7.7855    2.2355    7.4978 H         1 <0>         0.0725
     71 H34        -8.7326    0.9412    8.3053 H         1 <0>         0.0911
     72 H35        -6.6142    0.4451    6.5593 H         1 <0>         0.0669
     73 H36        -7.9510   -0.7008    6.8506 H         1 <0>         0.0802
     74 H37        -5.6039    4.5112    3.5029 H         1 <0>         0.4589
@<TRIPOS>BOND
     1    1    2 1
     2    1   40 1
     3    1   41 1
     4    1   42 1
     5    2    3 1
     6    2   43 1
     7    2   44 1
     8    3    4 1
     9    4    9 ar
    10    4    5 ar
    11    5    6 ar
    12    5   45 1
    13    6    7 ar
    14    6   46 1
    15    7    8 ar
    16    7   47 1
    17    8    9 ar
    18    8   48 1
    19    9   10 1
    20   10   15 1
    21   10   11 1
    22   11   12 1
    23   11   49 1
    24   11   50 1
    25   12   13 1
    26   12   51 1
    27   12   52 1
    28   13   14 1
    29   13   16 1
    30   14   15 1
    31   14   53 1
    32   14   54 1
    33   15   55 1
    34   15   56 1
    35   16   17 1
    36   16   57 1
    37   16   58 1
    38   17   23 1
    39   17   18 1
    40   18   19 2
    41   18   20 1
    42   20   21 1
    43   20   33 1
    44   21   22 1
    45   21   23 1
    46   21   24 1
    47   23   59 1
    48   24   32 1
    49   24   25 2
    50   25   30 ar
    51   25   26 ar
    52   26   27 ar
    53   26   60 1
    54   27   28 ar
    55   27   61 1
    56   28   29 ar
    57   28   62 1
    58   29   30 ar
    59   29   63 1
    60   30   31 2
    61   31   32 1
    62   31   74 1
    63   32   64 1
    64   32   65 1
    65   33   34 1
    66   33   66 1
    67   33   67 1
    68   34   35 1
    69   34   39 1
    70   34   36 1
    71   36   37 1
    72   36   68 1
    73   36   69 1
    74   37   38 1
    75   37   70 1
    76   37   71 1
    77   38   39 1
    78   38   72 1
    79   38   73 1
