@<TRIPOS>MOLECULE
ZINC07735199
   43    46     0     0     0
SMALL
USER_CHARGES
3-(2-quinolyl)-N-thiochroman-4-yl-prop-2-enamide
@<TRIPOS>ATOM
      1 C1         -0.1413   -8.2937    4.6578 C.ar      1 <0>        -0.1118
      2 C2         -0.8349   -7.2137    5.2017 C.ar      1 <0>        -0.0992
      3 C3         -1.0602   -6.0861    4.4750 C.ar      1 <0>        -0.0921
      4 C4         -0.5885   -6.0026    3.1509 C.ar      1 <0>         0.1304
      5 C5          0.1172   -7.1038    2.6001 C.ar      1 <0>        -0.0991
      6 C6          0.3307   -8.2504    3.3812 C.ar      1 <0>        -0.0977
      7 C7          0.5905   -7.0238    1.2759 C.ar      1 <0>        -0.0559
      8 C8          0.3435   -5.8843    0.5689 C.ar      1 <0>        -0.1538
      9 C9         -0.3570   -4.8253    1.1728 C.ar      1 <0>         0.1708
     10 N1         -0.7967   -4.9098    2.4163 N.ar      1 <0>        -0.4610
     11 C10        -0.6117   -3.5962    0.4000 C.2       1 <0>        -0.0306
     12 C11        -1.2857   -2.5754    0.9621 C.2       1 <0>        -0.1675
     13 C12        -1.5394   -1.3516    0.1927 C.2       1 <0>         0.5457
     14 O1         -1.1406   -1.2597   -0.9529 O.2       1 <0>        -0.5318
     15 N2         -2.2141   -0.3296    0.7554 N.am      1 <0>        -0.7168
     16 C13        -2.4674    0.8920   -0.0126 C.3       1 <0>         0.1854
     17 H1         -2.6683    0.6163   -1.0478 H         1 <0>         0.1007
     18 C14        -3.6987    1.5758    0.5553 C.3       1 <0>        -0.1310
     19 C15        -4.0096    2.8255   -0.2813 C.3       1 <0>        -0.1012
     20 S1         -2.7327    4.0599    0.1034 S.3       1 <0>        -0.1224
     21 C16        -1.2350    3.1274    0.0480 C.ar      1 <0>        -0.0676
     22 C17        -1.2338    1.7449    0.0174 C.ar      1 <0>        -0.1042
     23 C18        -0.0126    1.0758    0.0080 C.ar      1 <0>        -0.0949
     24 C19         1.1777    1.7707    0.0003 C.ar      1 <0>        -0.1242
     25 C20         1.1728    3.1536    0.0114 C.ar      1 <0>        -0.0991
     26 C21        -0.0289    3.8281    0.0383 C.ar      1 <0>        -0.1046
     27 H2          0.0243   -9.1767    5.2572 H         1 <0>         0.1302
     28 H3         -1.1990   -7.2730    6.2168 H         1 <0>         0.1325
     29 H4         -1.5990   -5.2583    4.9117 H         1 <0>         0.1370
     30 H5          0.8662   -9.0941    2.9716 H         1 <0>         0.1324
     31 H6          1.1310   -7.8458    0.8304 H         1 <0>         0.1440
     32 H7          0.6889   -5.7938   -0.4504 H         1 <0>         0.1439
     33 H8         -0.2577   -3.5146   -0.6170 H         1 <0>         0.1480
     34 H9         -1.6398   -2.6570    1.9791 H         1 <0>         0.1435
     35 H10        -2.5321   -0.4029    1.6689 H         1 <0>         0.4068
     36 H11        -3.5101    1.8667    1.5887 H         1 <0>         0.0879
     37 H12        -4.5461    0.8913    0.5170 H         1 <0>         0.0943
     38 H13        -4.9932    3.2139   -0.0171 H         1 <0>         0.1207
     39 H14        -3.9797    2.5787   -1.3426 H         1 <0>         0.0962
     40 H15         0.0021   -0.0041    0.0020 H         1 <0>         0.1344
     41 H16         2.1152    1.2346   -0.0139 H         1 <0>         0.1241
     42 H17         2.1037    3.7010   -0.0006 H         1 <0>         0.1291
     43 H18        -0.0367    4.9080    0.0515 H         1 <0>         0.1284
@<TRIPOS>BOND
     1    1    6 ar
     2    1    2 ar
     3    1   27 1
     4    2    3 ar
     5    2   28 1
     6    3    4 ar
     7    3   29 1
     8    4   10 ar
     9    4    5 ar
    10    5    6 ar
    11    5    7 ar
    12    6   30 1
    13    7    8 ar
    14    7   31 1
    15    8    9 ar
    16    8   32 1
    17    9   10 ar
    18    9   11 1
    19   11   12 2
    20   11   33 1
    21   12   13 1
    22   12   34 1
    23   13   14 2
    24   13   15 am
    25   15   16 1
    26   15   35 1
    27   16   17 1
    28   16   22 1
    29   16   18 1
    30   18   19 1
    31   18   36 1
    32   18   37 1
    33   19   20 1
    34   19   38 1
    35   19   39 1
    36   20   21 1
    37   21   26 ar
    38   21   22 ar
    39   22   23 ar
    40   23   24 ar
    41   23   40 1
    42   24   25 ar
    43   24   41 1
    44   25   26 ar
    45   25   42 1
    46   26   43 1
