@<TRIPOS>MOLECULE
ZINC38677208
   62    65     0     0     0
SMALL
USER_CHARGES

@<TRIPOS>ATOM
      1 C1         -0.6019   -2.0299    5.8355 C.3       1 <0>        -0.1533
      2 C2         -0.3488   -2.5798    4.4554 C.ar      1 <0>         0.1001
      3 C3         -0.0705   -3.9415    4.3080 C.ar      1 <0>        -0.1308
      4 C4          0.1647   -4.4914    3.0911 C.ar      1 <0>        -0.0228
      5 C5          0.1303   -3.6761    1.9344 C.ar      1 <0>        -0.1837
      6 C6          0.3263   -3.9508    0.5919 C.2       1 <0>         0.2844
      7 C7          0.1486   -2.6319   -0.1271 C.3       1 <0>         0.1395
      8 H1         -0.6786   -2.6980   -0.8338 H         1 <0>         0.2015
      9 N1         -0.1529   -1.6424    0.9122 N.pl3     1 <0>        -0.5953
     10 C8         -0.1626   -2.2405    2.0862 C.ar      1 <0>         0.3459
     11 C9         -0.4030   -1.7411    3.3927 C.ar      1 <0>        -0.2079
     12 C10         1.4181   -2.2588   -0.8484 C.2       1 <0>         0.4635
     13 O1          2.3831   -1.8902   -0.2216 O.2       1 <0>        -0.4521
     14 O2          1.4769   -2.3359   -2.1872 O.3       1 <0>        -0.3117
     15 C11         2.7116   -1.9669   -2.8047 C.3       1 <0>         0.0241
     16 N2          0.6187   -5.1586    0.0338 N.am      1 <0>        -0.6025
     17 C12         0.6333   -5.2957   -1.3069 C.2       1 <0>         0.4953
     18 O3          0.4531   -4.3297   -2.0170 O.2       1 <0>        -0.4454
     19 C13         0.8737   -6.6497   -1.9233 C.3       1 <0>        -0.0238
     20 N3          0.8417   -6.5338   -3.3874 N.4       1 <0>        -0.3695
     21 C14        -0.5049   -6.1344   -3.8156 C.3       1 <0>        -0.0356
     22 C15        -0.5102   -5.9020   -5.3301 C.3       1 <0>         0.1282
     23 N4          0.0024   -7.1130   -5.9895 N.pl3     1 <0>        -0.6623
     24 C16         1.2728   -7.6787   -5.5098 C.3       1 <0>         0.1233
     25 C17         1.1939   -7.8272   -3.9868 C.3       1 <0>        -0.0239
     26 C18        -0.6986   -7.7098   -7.0438 C.ar      1 <0>         0.1053
     27 C19        -0.4425   -7.3291   -8.3530 C.ar      1 <0>        -0.0773
     28 C20        -1.1358   -7.9203   -9.3924 C.ar      1 <0>        -0.1433
     29 C21        -2.0847   -8.8912   -9.1310 C.ar      1 <0>        -0.0643
     30 C22        -2.3453   -9.2758   -7.8285 C.ar      1 <0>        -0.2003
     31 C23        -1.6513   -8.6920   -6.7817 C.ar      1 <0>         0.1234
     32 O4         -1.9028   -9.0730   -5.5005 O.3       1 <0>        -0.3229
     33 C24        -2.8926  -10.0855   -5.3072 C.3       1 <0>         0.0218
     34 H2         -1.6659   -2.0952    6.0631 H         1 <0>         0.1110
     35 H3         -0.0377   -2.6090    6.5665 H         1 <0>         0.0976
     36 H4         -0.2852   -0.9876    5.8750 H         1 <0>         0.0950
     37 H5         -0.0419   -4.5712    5.1849 H         1 <0>         0.1638
     38 H6          0.3778   -5.5467    3.0048 H         1 <0>         0.1575
     39 H7         -0.6249   -0.6944    3.5399 H         1 <0>         0.1689
     40 H8          2.6236   -2.0746   -3.8858 H         1 <0>         0.1211
     41 H9          2.9445   -0.9305   -2.5606 H         1 <0>         0.0765
     42 H10         3.5085   -2.6143   -2.4388 H         1 <0>         0.0679
     43 H11         0.8163   -5.9200    0.6014 H         1 <0>         0.4512
     44 H12         1.8483   -7.0238   -1.6097 H         1 <0>         0.1778
     45 H13         0.0969   -7.3409   -1.5964 H         1 <0>         0.1785
     46 H14        -1.2145   -6.9233   -3.5665 H         1 <0>         0.1360
     47 H15        -0.7904   -5.2143   -3.3057 H         1 <0>         0.1420
     48 H16        -1.5279   -5.7045   -5.6668 H         1 <0>         0.1166
     49 H17         0.1301   -5.0539   -5.5728 H         1 <0>         0.0799
     50 H18         1.4338   -8.6558   -5.9652 H         1 <0>         0.1207
     51 H19         2.0931   -7.0100   -5.7706 H         1 <0>         0.0802
     52 H20         2.1602   -8.1545   -3.6030 H         1 <0>         0.1405
     53 H21         0.4329   -8.5650   -3.7324 H         1 <0>         0.1409
     54 H22         0.2980   -6.5707   -8.5599 H         1 <0>         0.1320
     55 H23        -0.9359   -7.6229  -10.4112 H         1 <0>         0.1337
     56 H24        -2.6242   -9.3502   -9.9462 H         1 <0>         0.1343
     57 H25        -3.0872  -10.0345   -7.6278 H         1 <0>         0.1345
     58 H26        -3.8477   -9.7402   -5.7030 H         1 <0>         0.0605
     59 H27        -2.5901  -10.9936   -5.8288 H         1 <0>         0.0614
     60 H28        -2.9949  -10.2951   -4.2424 H         1 <0>         0.1005
     61 H29        -0.3188   -0.6989    0.7598 H         1 <0>         0.4627
     62 H30         1.5070   -5.8352   -3.6829 H         1 <0>         0.4293
@<TRIPOS>BOND
     1    1    2 1
     2    1   34 1
     3    1   35 1
     4    1   36 1
     5    2   11 ar
     6    2    3 ar
     7    3    4 ar
     8    3   37 1
     9    4    5 ar
    10    4   38 1
    11    5   10 ar
    12    5    6 2
    13    6    7 1
    14    6   16 1
    15    7    8 1
    16    7    9 1
    17    7   12 1
    18    9   10 2
    19    9   61 1
    20   10   11 ar
    21   11   39 1
    22   12   13 2
    23   12   14 1
    24   14   15 1
    25   15   40 1
    26   15   41 1
    27   15   42 1
    28   16   17 am
    29   16   43 1
    30   17   18 2
    31   17   19 1
    32   19   20 1
    33   19   44 1
    34   19   45 1
    35   20   25 1
    36   20   21 1
    37   20   62 1
    38   21   22 1
    39   21   46 1
    40   21   47 1
    41   22   23 1
    42   22   48 1
    43   22   49 1
    44   23   24 1
    45   23   26 1
    46   24   25 1
    47   24   50 1
    48   24   51 1
    49   25   52 1
    50   25   53 1
    51   26   31 ar
    52   26   27 ar
    53   27   28 ar
    54   27   54 1
    55   28   29 ar
    56   28   55 1
    57   29   30 ar
    58   29   56 1
    59   30   31 ar
    60   30   57 1
    61   31   32 1
    62   32   33 1
    63   33   58 1
    64   33   59 1
    65   33   60 1
