@<TRIPOS>MOLECULE
ZINC20971447
   34    35     0     0     0
SMALL
USER_CHARGES
5-bromo-2-chloro-N-[[4-(cyanomethyl)phenyl]carbamothioyl]benzamide
@<TRIPOS>ATOM
      1 C1         -2.0773    1.5180    1.3258 C.ar      1 <0>        -0.0993
      2 C2         -2.7342    1.9647    2.4555 C.ar      1 <0>        -0.1195
      3 C3         -2.0064    2.4583    3.5306 C.ar      1 <0>         0.1337
      4 C4         -0.6195    2.4960    3.4676 C.ar      1 <0>        -0.0730
      5 C5          0.0315    2.0430    2.3370 C.ar      1 <0>        -0.0959
      6 C6         -0.6960    1.5518    1.2685 C.ar      1 <0>        -0.0867
      7 C7          0.0177    1.0579    0.0365 C.3       1 <0>         0.0134
      8 C8          0.3095   -0.3777    0.1810 C.1       1 <0>         0.2071
      9 N1          0.5348   -1.4855    0.2924 N.1       1 <0>        -0.4306
     10 N2         -2.6688    2.9159    4.6744 N.pl3     1 <0>        -0.6349
     11 C9         -2.2569    4.0443    5.2856 C.2       1 <0>         0.5195
     12 S1         -1.0166    4.9936    4.5847 S.2       1 <0>        -0.4898
     13 N3         -2.8215    4.4254    6.4485 N.am      1 <0>        -0.6529
     14 C10        -2.4096    5.5537    7.0597 C.2       1 <0>         0.5319
     15 O1         -1.5291    6.2276    6.5621 O.2       1 <0>        -0.3751
     16 C11        -3.0283    5.9714    8.3342 C.ar      1 <0>        -0.1243
     17 C12        -4.0444    5.2025    8.9058 C.ar      1 <0>        -0.0506
     18 C13        -4.6153    5.5964   10.0986 C.ar      1 <0>        -0.0983
     19 C14        -4.1895    6.7563   10.7245 C.ar      1 <0>        -0.0483
     20 C15        -3.1874    7.5252   10.1622 C.ar      1 <0>        -0.1078
     21 C16        -2.6037    7.1406    8.9706 C.ar      1 <0>         0.0285
     22 Cl1        -1.3457    8.1073    8.2659 Cl        1 <0>        -0.0077
     23 Br1        -5.9871    4.5536   10.8773 Br        1 <0>        -0.0262
     24 H1         -2.6428    1.1379    0.4878 H         1 <0>         0.1320
     25 H2         -3.8128    1.9340    2.5014 H         1 <0>         0.1279
     26 H3         -0.0507    2.8789    4.3020 H         1 <0>         0.1419
     27 H4          1.1100    2.0721    2.2874 H         1 <0>         0.1326
     28 H5         -0.6210    1.2154   -0.8451 H         1 <0>         0.1221
     29 H6          0.9592    1.6127   -0.0890 H         1 <0>         0.1231
     30 H7         -3.5259    2.3548    5.0751 H         1 <0>         0.4306
     31 H8         -3.6185    3.8155    6.8988 H         1 <0>         0.4301
     32 H9         -4.3804    4.3000    8.4169 H         1 <0>         0.1400
     33 H10        -4.6426    7.0618   11.6561 H         1 <0>         0.1515
     34 H11        -2.8604    8.4287   10.6554 H         1 <0>         0.1552
@<TRIPOS>BOND
     1    1    6 ar
     2    1    2 ar
     3    1   24 1
     4    2    3 ar
     5    2   25 1
     6    3    4 ar
     7    3   10 1
     8    4    5 ar
     9    4   26 1
    10    5    6 ar
    11    5   27 1
    12    6    7 1
    13    7    8 1
    14    7   28 1
    15    7   29 1
    16    8    9 3
    17   10   11 1
    18   10   30 1
    19   11   12 2
    20   11   13 1
    21   13   14 am
    22   13   31 1
    23   14   15 2
    24   14   16 1
    25   16   21 ar
    26   16   17 ar
    27   17   18 ar
    28   17   32 1
    29   18   19 ar
    30   18   23 1
    31   19   20 ar
    32   19   33 1
    33   20   21 ar
    34   20   34 1
    35   21   22 1
