@<TRIPOS>MOLECULE
ZINC35926558
   82    85     0     0     0
SMALL
USER_CHARGES

@<TRIPOS>ATOM
      1 C1         -0.0916   -4.6869    3.3906 C.3       1 <0>        -0.1547
      2 C2          0.6792   -3.7820    2.4274 C.3       1 <0>        -0.1254
      3 C3          1.5503   -4.6404    1.5080 C.3       1 <0>        -0.1211
      4 C4          2.3211   -3.7355    0.5447 C.3       1 <0>        -0.1051
      5 C5          3.2761   -4.5835   -0.2978 C.3       1 <0>        -0.1085
      6 H1          2.7171   -5.3788   -0.7907 H         1 <0>         0.0955
      7 C6          4.3462   -5.1975    0.6072 C.3       1 <0>        -0.1203
      8 C7          5.0482   -4.0877    1.3924 C.3       1 <0>        -0.1580
      9 C8          3.9357   -3.7143   -1.3373 C.2       1 <0>         0.5265
     10 O1          3.7620   -2.5141   -1.3230 O.2       1 <0>        -0.5218
     11 N1          4.7186   -4.2707   -2.2827 N.am      1 <0>        -0.6205
     12 C9          4.8706   -5.7302   -2.3641 C.3       1 <0>         0.0916
     13 C10         4.4950   -6.1839   -3.7802 C.3       1 <0>         0.0884
     14 N2          5.2116   -5.3420   -4.7486 N.pl3     1 <0>        -0.5752
     15 C11         5.0596   -3.8825   -4.6672 C.3       1 <0>         0.1126
     16 C12         5.4308   -3.4292   -3.2545 C.3       1 <0>         0.0945
     17 C13         6.0068   -5.9072   -5.7089 C.2       1 <0>         0.6618
     18 N3          6.0412   -7.2613   -5.8364 N.am      1 <0>        -0.6518
     19 H2          5.5059   -7.8190   -5.2505 H         1 <0>         0.4192
     20 C14         6.8228   -7.8260   -6.7815 C.2       1 <0>         0.5432
     21 O2          6.8654   -9.0386   -6.9099 O.2       1 <0>        -0.5087
     22 C15         7.5863   -6.9899   -7.6152 C.2       1 <0>        -0.2997
     23 C16         7.5114   -5.6385   -7.4408 C.2       1 <0>         0.1679
     24 N4          6.7218   -5.1298   -6.4977 N.2       1 <0>        -0.6121
     25 C17         8.3195   -4.7204   -8.3212 C.3       1 <0>         0.0564
     26 N5          7.4134   -3.9058   -9.1417 N.4       1 <0>        -0.3756
     27 C18         6.6659   -4.7786  -10.0558 C.3       1 <0>        -0.0271
     28 C19         5.6396   -3.9456  -10.8308 C.3       1 <0>         0.1242
     29 N6          6.3433   -2.8352  -11.4911 N.pl3     1 <0>        -0.6725
     30 C20         7.2457   -2.0052  -10.6781 C.3       1 <0>         0.1207
     31 C21         8.1962   -2.9298   -9.9103 C.3       1 <0>        -0.0273
     32 C22         6.1594   -2.5759  -12.8512 C.ar      1 <0>         0.1471
     33 C23         5.1579   -1.7065  -13.2651 C.ar      1 <0>        -0.1197
     34 C24         4.9792   -1.4521  -14.6104 C.ar      1 <0>        -0.1100
     35 C25         5.7955   -2.0620  -15.5456 C.ar      1 <0>        -0.1075
     36 C26         6.7929   -2.9281  -15.1371 C.ar      1 <0>        -0.0754
     37 C27         6.9811   -3.1823  -13.7926 C.ar      1 <0>        -0.0912
     38 C28         8.0727   -4.1213  -13.3479 C.3       1 <0>        -0.1108
     39 C29         7.6793   -3.5911  -16.1598 C.3       1 <0>        -0.1221
     40 H3         -0.7248   -5.3675    2.8216 H         1 <0>         0.0534
     41 H4          0.6131   -5.2624    3.9909 H         1 <0>         0.0539
     42 H5         -0.7121   -4.0753    4.0456 H         1 <0>         0.0556
     43 H6         -0.0254   -3.2064    1.8271 H         1 <0>         0.0617
     44 H7          1.3124   -3.1013    2.9964 H         1 <0>         0.0622
     45 H8          2.2549   -5.2159    2.1082 H         1 <0>         0.0659
     46 H9          0.9171   -5.3210    0.9389 H         1 <0>         0.0613
     47 H10         1.6187   -3.2202   -0.1105 H         1 <0>         0.0687
     48 H11         2.8923   -3.0019    1.1137 H         1 <0>         0.0775
     49 H12         3.8779   -5.8942    1.3025 H         1 <0>         0.0823
     50 H13         5.0767   -5.7288   -0.0029 H         1 <0>         0.0653
     51 H14         5.4331   -3.3398    0.6992 H         1 <0>         0.0520
     52 H15         4.3379   -3.6199    2.0741 H         1 <0>         0.0656
     53 H16         5.8736   -4.5129    1.9633 H         1 <0>         0.0590
     54 H17         5.9052   -6.0025   -2.1551 H         1 <0>         0.0822
     55 H18         4.2106   -6.2077   -1.6399 H         1 <0>         0.1145
     56 H19         4.7822   -7.2262   -3.9187 H         1 <0>         0.0941
     57 H20         3.4203   -6.0754   -3.9261 H         1 <0>         0.0998
     58 H21         5.7196   -3.4050   -5.3914 H         1 <0>         0.1171
     59 H22         4.0250   -3.6102   -4.8762 H         1 <0>         0.0856
     60 H23         5.1406   -2.3874   -3.1183 H         1 <0>         0.1139
     61 H24         6.5061   -3.5338   -3.1104 H         1 <0>         0.0761
     62 H25         8.2218   -7.4102   -8.3807 H         1 <0>         0.1615
     63 H26         8.9326   -4.0677   -7.6997 H         1 <0>         0.1508
     64 H27         8.9634   -5.3135   -8.9706 H         1 <0>         0.1475
     65 H28         7.3566   -5.2479  -10.7564 H         1 <0>         0.1330
     66 H29         6.1503   -5.5490   -9.4825 H         1 <0>         0.1307
     67 H30         5.1535   -4.5690  -11.5812 H         1 <0>         0.1147
     68 H31         4.8944   -3.5487  -10.1415 H         1 <0>         0.0768
     69 H32         7.8214   -1.3458  -11.3275 H         1 <0>         0.1170
     70 H33         6.6626   -1.4124   -9.9733 H         1 <0>         0.0795
     71 H34         8.8082   -2.3379   -9.2297 H         1 <0>         0.1401
     72 H35         8.8406   -3.4551  -10.6153 H         1 <0>         0.1329
     73 H36         4.5197   -1.2305  -12.5354 H         1 <0>         0.1228
     74 H37         4.2008   -0.7764  -14.9328 H         1 <0>         0.1281
     75 H38         5.6534   -1.8615  -16.5972 H         1 <0>         0.1278
     76 H39         7.6817   -5.1377  -13.3029 H         1 <0>         0.0683
     77 H40         8.8985   -4.0808  -14.0583 H         1 <0>         0.0727
     78 H41         8.4276   -3.8244  -12.3610 H         1 <0>         0.0564
     79 H42         8.5514   -2.9642  -16.3457 H         1 <0>         0.0748
     80 H43         8.0030   -4.5621  -15.7850 H         1 <0>         0.0691
     81 H44         7.1246   -3.7266  -17.0882 H         1 <0>         0.0717
     82 H45         6.7655   -3.4177   -8.5416 H         1 <0>         0.4283
@<TRIPOS>BOND
     1    1    2 1
     2    1   40 1
     3    1   41 1
     4    1   42 1
     5    2    3 1
     6    2   43 1
     7    2   44 1
     8    3    4 1
     9    3   45 1
    10    3   46 1
    11    4    5 1
    12    4   47 1
    13    4   48 1
    14    5    6 1
    15    5    7 1
    16    5    9 1
    17    7    8 1
    18    7   49 1
    19    7   50 1
    20    8   51 1
    21    8   52 1
    22    8   53 1
    23    9   10 2
    24    9   11 am
    25   11   16 1
    26   11   12 1
    27   12   13 1
    28   12   54 1
    29   12   55 1
    30   13   14 1
    31   13   56 1
    32   13   57 1
    33   14   15 1
    34   14   17 1
    35   15   16 1
    36   15   58 1
    37   15   59 1
    38   16   60 1
    39   16   61 1
    40   17   24 2
    41   17   18 1
    42   18   19 1
    43   18   20 am
    44   20   21 2
    45   20   22 1
    46   22   23 2
    47   22   62 1
    48   23   24 1
    49   23   25 1
    50   25   26 1
    51   25   63 1
    52   25   64 1
    53   26   31 1
    54   26   27 1
    55   26   82 1
    56   27   28 1
    57   27   65 1
    58   27   66 1
    59   28   29 1
    60   28   67 1
    61   28   68 1
    62   29   30 1
    63   29   32 1
    64   30   31 1
    65   30   69 1
    66   30   70 1
    67   31   71 1
    68   31   72 1
    69   32   37 ar
    70   32   33 ar
    71   33   34 ar
    72   33   73 1
    73   34   35 ar
    74   34   74 1
    75   35   36 ar
    76   35   75 1
    77   36   37 ar
    78   36   39 1
    79   37   38 1
    80   38   76 1
    81   38   77 1
    82   38   78 1
    83   39   79 1
    84   39   80 1
    85   39   81 1
