@<TRIPOS>MOLECULE
ZINC28706285
   73    75     0     0     0
SMALL
USER_CHARGES
ethyl 2-[[(1R)-1-[(2S)-2-[[2-(aminomethyl)-5-chloro-phenyl]methylcarbamoyl]pyrrolidine-1-carbonyl]-3-(1-oxidopyridin-1-ium-2-yl)propyl]amino]acetate
@<TRIPOS>ATOM
      1 C1          7.0988   -0.4617   -0.8861 C.3       1 <0>        -0.1615
      2 C2          6.0892    0.5270   -0.2995 C.3       1 <0>         0.0626
      3 O1          4.7419    0.0382   -0.5322 O.3       1 <0>        -0.3353
      4 C3          3.7317    0.7951   -0.0758 C.2       1 <0>         0.4566
      5 O2          3.9655    1.8318    0.4992 O.2       1 <0>        -0.4939
      6 C4          2.3060    0.3520   -0.2804 C.3       1 <0>         0.0021
      7 N1          1.3957    1.3450    0.3055 N.4       1 <0>        -0.5241
      8 C5         -0.0057    1.0032    0.0274 C.3       1 <0>         0.0231
      9 H1         -0.0812   -0.0936   -0.0096 H         1 <0>         0.1642
     10 C6         -0.4281    1.6267   -1.3045 C.3       1 <0>        -0.1572
     11 C7         -0.2361    3.1433   -1.2412 C.3       1 <0>        -0.0805
     12 C8         -0.7734    3.7707   -2.5017 C.ar      1 <0>         0.0867
     13 C9         -1.7218    4.7722   -2.4156 C.ar      1 <0>        -0.1149
     14 C10        -2.2097    5.3429   -3.5811 C.ar      1 <0>        -0.0669
     15 C11        -1.7235    4.8829   -4.7956 C.ar      1 <0>        -0.1099
     16 C12        -0.7753    3.8780   -4.8045 C.ar      1 <0>         0.0858
     17 N2         -0.3291    3.3611   -3.6749 N.ar      1 <0>        -0.1147
     18 O3          0.6476    2.3369   -3.7233 O.3       1 <0>        -0.5496
     19 C13        -0.8815    1.5364    1.1318 C.2       1 <0>         0.5298
     20 O4         -0.4486    2.3682    1.9010 O.2       1 <0>        -0.5059
     21 N3         -2.1458    1.0888    1.2648 N.am      1 <0>        -0.5857
     22 C14        -2.7722    0.0297    0.4528 C.3       1 <0>         0.0765
     23 C15        -4.2931    0.3108    0.5395 C.3       1 <0>        -0.1334
     24 C16        -4.4375    0.7933    2.0071 C.3       1 <0>        -0.1206
     25 C17        -3.1267    1.5716    2.2478 C.3       1 <0>         0.1246
     26 H2         -3.2510    2.6576    2.1244 H         1 <0>         0.1169
     27 C18        -2.6228    1.3127    3.6442 C.2       1 <0>         0.5116
     28 O5         -1.5479    0.7765    3.8114 O.2       1 <0>        -0.5207
     29 N4         -3.3668    1.6770    4.7074 N.am      1 <0>        -0.7418
     30 C19        -2.8769    1.4253    6.0650 C.3       1 <0>         0.1652
     31 C20        -3.8888    1.9234    7.0645 C.ar      1 <0>        -0.0812
     32 C21        -3.7042    3.1450    7.6845 C.ar      1 <0>        -0.0867
     33 C22        -4.6331    3.6021    8.6020 C.ar      1 <0>        -0.0068
     34 C23        -5.7466    2.8360    8.8986 C.ar      1 <0>        -0.0945
     35 C24        -5.9300    1.6149    8.2781 C.ar      1 <0>        -0.0723
     36 C25        -5.0041    1.1612    7.3570 C.ar      1 <0>        -0.1488
     37 C26        -5.2081   -0.1675    6.6758 C.3       1 <0>         0.0486
     38 N5         -4.3829   -1.1880    7.3357 N.4       1 <0>        -0.6882
     39 Cl1        -4.4017    5.1359    9.3814 Cl        1 <0>        -0.0266
     40 H3          8.1195   -0.0914   -0.7098 H         1 <0>         0.0943
     41 H4          6.9271   -0.5626   -1.9679 H         1 <0>         0.0742
     42 H5          6.9757   -1.4419   -0.4023 H         1 <0>         0.0726
     43 H6          6.2609    0.6279    0.7823 H         1 <0>         0.0826
     44 H7          6.2123    1.5072   -0.7833 H         1 <0>         0.0838
     45 H8          2.1022    0.2581   -1.3573 H         1 <0>         0.1799
     46 H9          2.1507   -0.6211    0.2084 H         1 <0>         0.1735
     47 H10         1.5412    1.3777    1.3953 H         1 <0>         0.4632
     48 H11         0.1891    1.2125   -2.1154 H         1 <0>         0.1506
     49 H12        -1.4869    1.3988   -1.4966 H         1 <0>         0.1153
     50 H13        -0.7772    3.5454   -0.3720 H         1 <0>         0.1038
     51 H14         0.8352    3.3736   -1.1448 H         1 <0>         0.0905
     52 H15        -2.0782    5.1065   -1.4525 H         1 <0>         0.1627
     53 H16        -2.9509    6.1275   -3.5440 H         1 <0>         0.1619
     54 H17        -2.0813    5.3052   -5.7230 H         1 <0>         0.1730
     55 H18        -0.3920    3.5141   -5.7463 H         1 <0>         0.1902
     56 H19        -2.4042    0.0948   -0.5818 H         1 <0>         0.0908
     57 H20        -2.5152   -0.9542    0.8721 H         1 <0>         0.0848
     58 H21        -4.5667    1.0786   -0.1991 H         1 <0>         0.0909
     59 H22        -4.8496   -0.6146    0.3297 H         1 <0>         0.1023
     60 H23        -5.3298    1.4301    2.0976 H         1 <0>         0.1060
     61 H24        -4.5398   -0.0777    2.6711 H         1 <0>         0.0851
     62 H25        -4.3418    2.1633    4.5558 H         1 <0>         0.4319
     63 H26        -2.7240    0.3450    6.2052 H         1 <0>         0.0587
     64 H27        -1.9234    1.9530    6.2145 H         1 <0>         0.0939
     65 H28        -2.8351    3.7427    7.4524 H         1 <0>         0.1476
     66 H29        -6.4720    3.1922    9.6151 H         1 <0>         0.1517
     67 H30        -6.7991    1.0169    8.5095 H         1 <0>         0.1475
     68 H31        -6.2680   -0.4543    6.7415 H         1 <0>         0.1433
     69 H32        -4.9151   -0.0864    5.6186 H         1 <0>         0.1312
     70 H33        -4.5319   -2.1578    6.8384 H         1 <0>         0.4615
     71 H34        -4.6759   -1.2691    8.3928 H         1 <0>         0.4613
     72 H35         1.6088    2.3355   -0.1228 H         1 <0>         0.4578
     73 H36        -3.3230   -0.9012    7.2700 H         1 <0>         0.4489
@<TRIPOS>BOND
     1    1    2 1
     2    1   40 1
     3    1   41 1
     4    1   42 1
     5    2    3 1
     6    2   43 1
     7    2   44 1
     8    3    4 1
     9    4    5 2
    10    4    6 1
    11    6    7 1
    12    6   45 1
    13    6   46 1
    14    7    8 1
    15    7   47 1
    16    7   72 1
    17    8    9 1
    18    8   10 1
    19    8   19 1
    20   10   11 1
    21   10   48 1
    22   10   49 1
    23   11   12 1
    24   11   50 1
    25   11   51 1
    26   12   17 ar
    27   12   13 ar
    28   13   14 ar
    29   13   52 1
    30   14   15 ar
    31   14   53 1
    32   15   16 ar
    33   15   54 1
    34   16   17 ar
    35   16   55 1
    36   17   18 1
    37   19   20 2
    38   19   21 am
    39   21   25 1
    40   21   22 1
    41   22   23 1
    42   22   56 1
    43   22   57 1
    44   23   24 1
    45   23   58 1
    46   23   59 1
    47   24   25 1
    48   24   60 1
    49   24   61 1
    50   25   26 1
    51   25   27 1
    52   27   28 2
    53   27   29 am
    54   29   30 1
    55   29   62 1
    56   30   31 1
    57   30   63 1
    58   30   64 1
    59   31   36 ar
    60   31   32 ar
    61   32   33 ar
    62   32   65 1
    63   33   34 ar
    64   33   39 1
    65   34   35 ar
    66   34   66 1
    67   35   36 ar
    68   35   67 1
    69   36   37 1
    70   37   38 1
    71   37   68 1
    72   37   69 1
    73   38   70 1
    74   38   71 1
    75   38   73 1
