@<TRIPOS>MOLECULE
ZINC10813747
   68    70     0     0     0
SMALL
USER_CHARGES
1-(2,4-dimethylphenyl)sulfonyl-N-(2,2,6,6-tetramethyl-4-piperidyl)-piperidine-4-carboxamide
@<TRIPOS>ATOM
      1 C1          6.6076   -5.1046   -2.1933 C.3       1 <0>        -0.1270
      2 C2          6.9409   -3.7010   -1.7576 C.ar      1 <0>        -0.0218
      3 C3          7.4689   -2.8022   -2.6658 C.ar      1 <0>        -0.1487
      4 C4          7.7750   -1.5150   -2.2661 C.ar      1 <0>        -0.0140
      5 C5          7.5533   -1.1263   -0.9579 C.ar      1 <0>        -0.6891
      6 C6          7.0303   -2.0264   -0.0487 C.ar      1 <0>         0.0288
      7 C7          6.7192   -3.3124   -0.4499 C.ar      1 <0>        -0.1463
      8 C8          6.7944   -1.6045    1.3787 C.3       1 <0>        -0.1894
      9 S1          7.9440    0.5145   -0.4482 S.o2      1 <0>         2.6918
     10 O1          8.4949    1.1715   -1.5813 O.2       1 <0>        -0.9525
     11 O2          8.6454    0.4013    0.7825 O.2       1 <0>        -0.9476
     12 N1          6.5130    1.2757   -0.1090 N.pl3     1 <0>        -0.9971
     13 C9          5.9915    1.3122    1.2641 C.3       1 <0>         0.1073
     14 C10         4.5570    0.7748    1.2613 C.3       1 <0>        -0.1221
     15 C11         3.7224    1.5651    0.2508 C.3       1 <0>        -0.1041
     16 C12         4.3092    1.3832   -1.1509 C.3       1 <0>        -0.1270
     17 C13         5.7408    1.9279   -1.1754 C.3       1 <0>         0.1228
     18 C14         2.3021    1.0618    0.2698 C.2       1 <0>         0.5249
     19 O3          1.9884    0.1596    1.0171 O.2       1 <0>        -0.5255
     20 N2          1.3805    1.6141   -0.5439 N.am      1 <0>        -0.7324
     21 C15        -0.0034    1.1237   -0.5254 C.3       1 <0>         0.1388
     22 C16        -0.7779    1.8435    0.5782 C.3       1 <0>        -0.1387
     23 C17        -2.2287    1.3693    0.6060 C.3       1 <0>         0.0656
     24 C18        -2.1149    0.9548   -1.8684 C.3       1 <0>         0.0674
     25 C19        -0.6660    1.4360   -1.8669 C.3       1 <0>        -0.1362
     26 C20        -2.8010    1.5487   -3.1188 C.3       1 <0>        -0.1842
     27 C21        -2.1480   -0.5712   -2.0146 C.3       1 <0>        -0.1751
     28 C22        -3.0140    2.3286    1.5281 C.3       1 <0>        -0.1835
     29 C23        -2.2997   -0.0262    1.2376 C.3       1 <0>        -0.1727
     30 H1          7.4764   -5.7464   -2.0470 H         1 <0>         0.0823
     31 H2          5.7739   -5.4808   -1.6005 H         1 <0>         0.0723
     32 H3          6.3315   -5.1017   -3.2478 H         1 <0>         0.0735
     33 H4          7.6425   -3.1059   -3.6876 H         1 <0>         0.1333
     34 H5          8.1878   -0.8130   -2.9754 H         1 <0>         0.1432
     35 H6          6.3072   -4.0146    0.2597 H         1 <0>         0.1314
     36 H7          5.7576   -1.2899    1.4979 H         1 <0>         0.0909
     37 H8          6.9984   -2.4434    2.0440 H         1 <0>         0.0880
     38 H9          7.4566   -0.7749    1.6265 H         1 <0>         0.1072
     39 H10         5.9963    2.3390    1.6297 H         1 <0>         0.0819
     40 H11         6.6135    0.6901    1.9078 H         1 <0>         0.1061
     41 H12         4.1249    0.8856    2.2558 H         1 <0>         0.0879
     42 H13         4.5638   -0.2790    0.9824 H         1 <0>         0.0824
     43 H14         3.7366    2.6223    0.5161 H         1 <0>         0.1065
     44 H15         4.3183    0.3237   -1.4067 H         1 <0>         0.0764
     45 H16         3.7008    1.9272   -1.8734 H         1 <0>         0.0795
     46 H17         5.7252    3.0049   -1.0088 H         1 <0>         0.0826
     47 H18         6.1988    1.7141   -2.1411 H         1 <0>         0.0964
     48 H19         1.6314    2.3357   -1.1416 H         1 <0>         0.4065
     49 H20         0.0047    0.0516   -0.3464 H         1 <0>         0.1055
     50 H21        -0.3095    1.6369    1.5433 H         1 <0>         0.1149
     51 H22        -0.7507    2.9203    0.3969 H         1 <0>         0.0908
     52 H23        -0.6407    2.5140   -2.0415 H         1 <0>         0.0955
     53 H24        -0.1162    0.9364   -2.6678 H         1 <0>         0.1172
     54 H25        -2.2846    1.2042   -4.0147 H         1 <0>         0.1063
     55 H26        -3.8410    1.2240   -3.1513 H         1 <0>         0.0838
     56 H27        -2.7615    2.6370   -3.0725 H         1 <0>         0.0822
     57 H28        -1.6150   -1.0277   -1.1806 H         1 <0>         0.0826
     58 H29        -3.1828   -0.9137   -2.0156 H         1 <0>         0.0831
     59 H30        -1.6698   -0.8569   -2.9515 H         1 <0>         0.1060
     60 H31        -4.0486    1.9939    1.6040 H         1 <0>         0.0831
     61 H32        -2.5599    2.3330    2.5190 H         1 <0>         0.1058
     62 H33        -2.9875    3.3356    1.1117 H         1 <0>         0.0807
     63 H34        -1.7845   -0.7417    0.5967 H         1 <0>         0.0812
     64 H35        -1.8221   -0.0063    2.2172 H         1 <0>         0.1063
     65 H36        -3.3428   -0.3225    1.3478 H         1 <0>         0.0818
     66 N3         -2.9267    1.4083   -0.7072 N.4       1 <0>        -0.5090
     67 H37        -3.2195    2.3766   -0.8829 H         1 <0>         0.4291
     68 H38        -3.7558    0.8060   -0.6445 H         1 <0>         0.4322
@<TRIPOS>BOND
     1    1    2 1
     2    1   30 1
     3    1   31 1
     4    1   32 1
     5    2    7 ar
     6    2    3 ar
     7    3    4 ar
     8    3   33 1
     9    4    5 ar
    10    4   34 1
    11    5    6 ar
    12    5    9 1
    13    6    7 ar
    14    6    8 1
    15    7   35 1
    16    8   36 1
    17    8   37 1
    18    8   38 1
    19    9   10 2
    20    9   11 2
    21    9   12 1
    22   12   17 1
    23   12   13 1
    24   13   14 1
    25   13   39 1
    26   13   40 1
    27   14   15 1
    28   14   41 1
    29   14   42 1
    30   15   16 1
    31   15   18 1
    32   15   43 1
    33   16   17 1
    34   16   44 1
    35   16   45 1
    36   17   46 1
    37   17   47 1
    38   18   19 2
    39   18   20 am
    40   20   21 1
    41   20   48 1
    42   21   25 1
    43   21   22 1
    44   21   49 1
    45   22   23 1
    46   22   50 1
    47   22   51 1
    48   23   28 1
    49   23   29 1
    50   23   66 1
    51   24   25 1
    52   24   26 1
    53   24   27 1
    54   24   66 1
    55   25   52 1
    56   25   53 1
    57   26   54 1
    58   26   55 1
    59   26   56 1
    60   27   57 1
    61   27   58 1
    62   27   59 1
    63   28   60 1
    64   28   61 1
    65   28   62 1
    66   29   63 1
    67   29   64 1
    68   29   65 1
    69   66   67 1
    70   66   68 1
