@<TRIPOS>MOLECULE
ZINC00888531
   67    71     0     0     0
SMALL
USER_CHARGES

@<TRIPOS>ATOM
      1 C1          0.9637   -2.5926    4.8434 C.3       1 <0>        -0.0782
      2 C2          1.1103   -3.8509    4.0272 C.2       1 <0>         0.0156
      3 C3          0.1816   -4.8189    3.9022 C.2       1 <0>        -0.2150
      4 C4          0.7253   -5.8055    3.0552 C.2       1 <0>        -0.1323
      5 C5          1.9681   -5.3807    2.7066 C.2       1 <0>         0.0477
      6 O1          2.1861   -4.1909    3.2988 O.3       1 <0>        -0.1579
      7 C6          2.9149   -6.0979    1.8254 C.2       1 <0>         0.2488
      8 N1          2.7100   -7.2776    1.2192 N.2       1 <0>        -0.2517
      9 N2          3.7754   -7.5517    0.5458 N.2       1 <0>        -0.0386
     10 N3          4.6282   -6.6009    0.7054 N.pl3     1 <0>        -0.1238
     11 N4          4.1243   -5.7000    1.4770 N.2       1 <0>        -0.2769
     12 C7          5.9610   -6.5481    0.0997 C.3       1 <0>         0.0880
     13 C8          5.8786   -5.8561   -1.2365 C.2       1 <0>         0.5240
     14 O2          4.8006   -5.5224   -1.6811 O.2       1 <0>        -0.5038
     15 N5          7.0027   -5.6078   -1.9373 N.am      1 <0>        -0.5781
     16 C9          8.3008   -6.0466   -1.4192 C.3       1 <0>         0.1316
     17 C10         9.1802   -4.8454   -1.1851 C.ar      1 <0>        -0.0843
     18 C11        10.0987   -4.4634   -2.1450 C.ar      1 <0>        -0.1012
     19 C12        10.9053   -3.3617   -1.9305 C.ar      1 <0>        -0.1072
     20 C13        10.7941   -2.6410   -0.7558 C.ar      1 <0>        -0.0943
     21 C14         9.8763   -3.0219    0.2046 C.ar      1 <0>        -0.0959
     22 C15         9.0646   -4.1214   -0.0121 C.ar      1 <0>         0.0114
     23 Cl1         7.9068   -4.5965    1.1911 Cl        1 <0>        -0.0651
     24 C16         6.9264   -4.8993   -3.2173 C.3       1 <0>         0.2156
     25 H1          5.8818   -4.7188   -3.4710 H         1 <0>         0.1479
     26 C17         7.5672   -5.7367   -4.2940 C.2       1 <0>        -0.1818
     27 C18         7.1888   -5.9027   -5.5849 C.2       1 <0>        -0.1251
     28 C19         7.9374   -6.7289   -6.4020 C.2       1 <0>        -0.1582
     29 C20         9.0279   -7.3487   -5.8881 C.2       1 <0>        -0.1702
     30 S1          9.0263   -6.7614   -4.2022 S.3       1 <0>         0.0626
     31 C21         7.6513   -3.5828   -3.1067 C.2       1 <0>         0.5068
     32 O3          7.8339   -3.0807   -2.0179 O.2       1 <0>        -0.4954
     33 N6          8.0967   -2.9633   -4.2177 N.am      1 <0>        -0.7175
     34 C22         8.8014   -1.6834   -4.1102 C.3       1 <0>         0.1481
     35 C23         7.7827   -0.5430   -4.0599 C.3       1 <0>        -0.1297
     36 C24         8.5187    0.7937   -3.9476 C.3       1 <0>        -0.1159
     37 C25         9.4304    0.9775   -5.1624 C.3       1 <0>        -0.1226
     38 C26        10.4491   -0.1630   -5.2127 C.3       1 <0>        -0.1146
     39 C27         9.7132   -1.4996   -5.3250 C.3       1 <0>        -0.1259
     40 H2          1.8701   -1.9938    4.7540 H         1 <0>         0.0788
     41 H3          0.1120   -2.0193    4.4774 H         1 <0>         0.0911
     42 H4          0.8030   -2.8546    5.8892 H         1 <0>         0.0913
     43 H5         -0.7945   -4.8358    4.3641 H         1 <0>         0.1589
     44 H6          0.2467   -6.7222    2.7436 H         1 <0>         0.1626
     45 H7          6.6358   -5.9960    0.7538 H         1 <0>         0.1563
     46 H8          6.3376   -7.5616   -0.0387 H         1 <0>         0.1519
     47 H9          8.1557   -6.5793   -0.4794 H         1 <0>         0.1027
     48 H10         8.7758   -6.7091   -2.1428 H         1 <0>         0.0980
     49 H11        10.1862   -5.0261   -3.0627 H         1 <0>         0.1308
     50 H12        11.6230   -3.0638   -2.6806 H         1 <0>         0.1246
     51 H13        11.4249   -1.7805   -0.5886 H         1 <0>         0.1287
     52 H14         9.7898   -2.4591    1.1223 H         1 <0>         0.1306
     53 H15         6.3152   -5.3973   -5.9693 H         1 <0>         0.1385
     54 H16         7.6575   -6.8787   -7.4343 H         1 <0>         0.1383
     55 H17         9.7203   -8.0204   -6.3737 H         1 <0>         0.1874
     56 H18         7.9506   -3.3649   -5.0886 H         1 <0>         0.3987
     57 H19         9.4019   -1.6746   -3.2006 H         1 <0>         0.0946
     58 H20         7.1822   -0.5518   -4.9696 H         1 <0>         0.0619
     59 H21         7.1331   -0.6739   -3.1945 H         1 <0>         0.0667
     60 H22         7.7929    1.6061   -3.9118 H         1 <0>         0.0643
     61 H23         9.1191    0.8025   -3.0380 H         1 <0>         0.0636
     62 H24         8.8300    0.9686   -6.0721 H         1 <0>         0.0624
     63 H25         9.9548    1.9297   -5.0824 H         1 <0>         0.0641
     64 H26        11.0987   -0.0320   -6.0782 H         1 <0>         0.0672
     65 H27        11.0496   -0.1542   -4.3031 H         1 <0>         0.0647
     66 H28        10.4389   -2.3121   -5.3608 H         1 <0>         0.0679
     67 H29         9.1127   -1.5085   -6.2347 H         1 <0>         0.0667
@<TRIPOS>BOND
     1    1    2 1
     2    1   40 1
     3    1   41 1
     4    1   42 1
     5    2    6 1
     6    2    3 2
     7    3    4 1
     8    3   43 1
     9    4    5 2
    10    4   44 1
    11    5    6 1
    12    5    7 1
    13    7   11 2
    14    7    8 1
    15    8    9 2
    16    9   10 1
    17   10   11 1
    18   10   12 1
    19   12   13 1
    20   12   45 1
    21   12   46 1
    22   13   14 2
    23   13   15 am
    24   15   16 1
    25   15   24 1
    26   16   17 1
    27   16   47 1
    28   16   48 1
    29   17   22 ar
    30   17   18 ar
    31   18   19 ar
    32   18   49 1
    33   19   20 ar
    34   19   50 1
    35   20   21 ar
    36   20   51 1
    37   21   22 ar
    38   21   52 1
    39   22   23 1
    40   24   25 1
    41   24   26 1
    42   24   31 1
    43   26   30 1
    44   26   27 2
    45   27   28 1
    46   27   53 1
    47   28   29 2
    48   28   54 1
    49   29   30 1
    50   29   55 1
    51   31   32 2
    52   31   33 am
    53   33   34 1
    54   33   56 1
    55   34   39 1
    56   34   35 1
    57   34   57 1
    58   35   36 1
    59   35   58 1
    60   35   59 1
    61   36   37 1
    62   36   60 1
    63   36   61 1
    64   37   38 1
    65   37   62 1
    66   37   63 1
    67   38   39 1
    68   38   64 1
    69   38   65 1
    70   39   66 1
    71   39   67 1
