@<TRIPOS>MOLECULE
ZINC57343096
   36    38     0     0     0
SMALL
USER_CHARGES

@<TRIPOS>ATOM
      1 C1         -0.0193    1.3742   -0.0391 C.ar      1 <0>        -0.1350
      2 C2          1.0868    1.9426   -0.6443 C.ar      1 <0>        -0.0644
      3 C3          2.2951    1.2742   -0.6450 C.ar      1 <0>        -0.1207
      4 C4          2.3989    0.0295   -0.0370 C.ar      1 <0>         0.2126
      5 C5          1.2864   -0.5384    0.5698 C.ar      1 <0>        -0.2173
      6 C6          0.0806    0.1356    0.5670 C.ar      1 <0>        -0.0516
      7 C7          1.3943   -1.8886    1.2303 C.3       1 <0>         0.5068
      8 F1          0.1525   -2.2462    1.7662 F         1 <0>        -0.1696
      9 F2          1.7851   -2.8411    0.2831 F         1 <0>        -0.1805
     10 F3          2.3454   -1.8321    2.2546 F         1 <0>        -0.1749
     11 N1          3.6211   -0.6504   -0.0363 N.pl3     1 <0>        -0.6459
     12 C8          4.7945    0.0491   -0.1477 C.2       1 <0>         0.6278
     13 N2          4.7686    1.3638   -0.1342 N.2       1 <0>        -0.5744
     14 C9          5.8855    2.0947   -0.2346 C.2       1 <0>         0.2154
     15 C10         7.0862    1.4720   -0.3516 C.2       1 <0>        -0.2788
     16 C11         7.1232    0.0612   -0.3755 C.2       1 <0>         0.5435
     17 N3          5.9696   -0.6274   -0.2650 N.am      1 <0>        -0.6470
     18 O1          8.1858   -0.5274   -0.4900 O.2       1 <0>        -0.5278
     19 C12         8.3898    2.2166   -0.4497 C.3       1 <0>        -0.0474
     20 C13         8.1482    3.6741   -0.8389 C.3       1 <0>        -0.1211
     21 C14         7.0860    4.2548    0.1024 C.3       1 <0>        -0.1202
     22 C15         5.7463    3.5943   -0.2173 C.3       1 <0>        -0.0707
     23 H1         -0.9620    1.9011   -0.0360 H         1 <0>         0.1377
     24 H2          1.0054    2.9102   -1.1172 H         1 <0>         0.1386
     25 H3          3.1584    1.7184   -1.1182 H         1 <0>         0.1667
     26 H4         -0.7849   -0.3054    1.0390 H         1 <0>         0.1435
     27 H5          3.6383   -1.6170    0.0429 H         1 <0>         0.4221
     28 H6          5.9766   -1.5973   -0.2728 H         1 <0>         0.4148
     29 H7          8.8972    2.1814    0.5143 H         1 <0>         0.0719
     30 H8          9.0185    1.7428   -1.2036 H         1 <0>         0.0763
     31 H9          9.0750    4.2392   -0.7399 H         1 <0>         0.0731
     32 H10         7.7941    3.7255   -1.8685 H         1 <0>         0.0667
     33 H11         7.3597    4.0479    1.1370 H         1 <0>         0.0691
     34 H12         7.0100    5.3315   -0.0495 H         1 <0>         0.0768
     35 H13         5.4018    3.9346   -1.1939 H         1 <0>         0.0924
     36 H14         5.0156    3.8787    0.5399 H         1 <0>         0.0916
@<TRIPOS>BOND
     1    1    6 ar
     2    1    2 ar
     3    1   23 1
     4    2    3 ar
     5    2   24 1
     6    3    4 ar
     7    3   25 1
     8    4    5 ar
     9    4   11 1
    10    5    6 ar
    11    5    7 1
    12    6   26 1
    13    7    8 1
    14    7    9 1
    15    7   10 1
    16   11   12 1
    17   11   27 1
    18   12   17 1
    19   12   13 2
    20   13   14 1
    21   14   22 1
    22   14   15 2
    23   15   16 1
    24   15   19 1
    25   16   18 2
    26   16   17 am
    27   17   28 1
    28   19   20 1
    29   19   29 1
    30   19   30 1
    31   20   21 1
    32   20   31 1
    33   20   32 1
    34   21   22 1
    35   21   33 1
    36   21   34 1
    37   22   35 1
    38   22   36 1
