@<TRIPOS>MOLECULE
ZINC15946879
   66    68     0     0     0
SMALL
USER_CHARGES
(6S)-6-tert-butyl-2-[[2-(isopropylamino)acetyl]amino]-N-(3-nitrophenyl)-4,5,6,7-tetrahydrobenzothiophene-3-carboxamide
@<TRIPOS>ATOM
      1 C1         -1.5615    9.0790   -8.4915 C.3       1 <0>        -0.1861
      2 C2         -0.9782    8.0793   -7.4909 C.3       1 <0>         0.0283
      3 C3          0.4778    7.7832   -7.8557 C.3       1 <0>        -0.1863
      4 C4         -1.0647    7.5893   -5.1213 C.3       1 <0>        -0.0183
      5 C5         -1.1258    8.2106   -3.7497 C.2       1 <0>         0.4927
      6 O1         -1.1451    9.4174   -3.6309 O.2       1 <0>        -0.4912
      7 N1         -1.1589    7.4251   -2.6549 N.am      1 <0>        -0.5958
      8 C6         -1.2151    7.9968   -1.3929 C.2       1 <0>         0.0315
      9 C7         -1.2555    7.3617   -0.1595 C.2       1 <0>        -0.1906
     10 C8         -1.3057    8.2001    1.0261 C.2       1 <0>        -0.0726
     11 C9         -1.3125    9.5301    0.7903 C.2       1 <0>        -0.1732
     12 S1         -1.2540    9.6773   -0.9730 S.3       1 <0>         0.2445
     13 C10        -1.3590   10.6277    1.8081 C.3       1 <0>        -0.0429
     14 C11        -1.0208   10.0287    3.1811 C.3       1 <0>        -0.0686
     15 H1          0.0403    9.7829    3.2234 H         1 <0>         0.0787
     16 C12        -1.8506    8.7575    3.3828 C.3       1 <0>        -0.1208
     17 C13        -1.3489    7.6551    2.4484 C.3       1 <0>        -0.0638
     18 C14        -1.3570   11.0402    4.2787 C.3       1 <0>        -0.0623
     19 C15        -1.0352   10.4344    5.6464 C.3       1 <0>        -0.1470
     20 C16        -0.5267   12.3090    4.0748 C.3       1 <0>        -0.1465
     21 C17        -2.8454   11.3885    4.2127 C.3       1 <0>        -0.1499
     22 C18        -1.2418    5.8994   -0.0566 C.2       1 <0>         0.5798
     23 O2         -2.2896    5.2800   -0.0497 O.2       1 <0>        -0.4974
     24 N2         -0.0691    5.2409    0.0304 N.am      1 <0>        -0.6648
     25 C19        -0.0497    3.8425    0.0174 C.ar      1 <0>         0.1465
     26 C20        -0.9883    3.1402   -0.7278 C.ar      1 <0>        -0.0774
     27 C21        -0.9626    1.7597   -0.7434 C.ar      1 <0>        -0.0929
     28 C22        -0.0106    1.0760   -0.0091 C.ar      1 <0>        -0.0650
     29 C23         0.9251    1.7719    0.7337 C.ar      1 <0>        -0.0184
     30 C24         0.9083    3.1531    0.7490 C.ar      1 <0>        -0.0831
     31 N3          1.9462    1.0363    1.5129 N.pl3     1 <0>         0.0229
     32 O3          1.9618   -0.1816    1.4995 O.2       1 <0>        -0.1450
     33 O4          2.7708    1.6487    2.1674 O.3       1 <0>        -0.1522
     34 H2         -0.9841   10.0030   -8.4606 H         1 <0>         0.0850
     35 H3         -1.5172    8.6563   -9.4952 H         1 <0>         0.1108
     36 H4         -2.5988    9.2900   -8.2316 H         1 <0>         0.0842
     37 H5         -1.5557    7.1554   -7.5218 H         1 <0>         0.1422
     38 H6          0.8934    7.0710   -7.1428 H         1 <0>         0.0794
     39 H7          0.5222    7.3605   -8.8594 H         1 <0>         0.1107
     40 H8          1.0553    8.7072   -7.8248 H         1 <0>         0.0853
     41 H9         -0.1633    6.9822   -5.2053 H         1 <0>         0.1669
     42 H10        -1.9417    6.9605   -5.2747 H         1 <0>         0.1687
     43 H11        -1.1434    6.4599   -2.7499 H         1 <0>         0.4251
     44 H12        -2.3579   11.0629    1.8334 H         1 <0>         0.0950
     45 H13        -0.6297   11.3967    1.5533 H         1 <0>         0.0877
     46 H14        -2.8970    8.9696    3.1636 H         1 <0>         0.0715
     47 H15        -1.7586    8.4253    4.4169 H         1 <0>         0.0814
     48 H16        -2.0264    6.8024    2.4925 H         1 <0>         0.0776
     49 H17        -0.3487    7.3460    2.7518 H         1 <0>         0.0809
     50 H18         0.0251   10.1862    5.6934 H         1 <0>         0.0563
     51 H19        -1.2748   11.1550    6.4283 H         1 <0>         0.0587
     52 H20        -1.6268    9.5305    5.7917 H         1 <0>         0.0595
     53 H21        -0.7560   12.7405    3.1005 H         1 <0>         0.0558
     54 H22        -0.7663   13.0295    4.8568 H         1 <0>         0.0588
     55 H23         0.5336   12.0608    4.1219 H         1 <0>         0.0562
     56 H24        -3.4369   10.4846    4.3580 H         1 <0>         0.0587
     57 H25        -3.0849   12.1091    4.9947 H         1 <0>         0.0584
     58 H26        -3.0746   11.8201    3.2383 H         1 <0>         0.0569
     59 H27         0.7615    5.7369    0.1020 H         1 <0>         0.4193
     60 H28        -1.7344    3.6735   -1.2982 H         1 <0>         0.1487
     61 H29        -1.6893    1.2132   -1.3261 H         1 <0>         0.1551
     62 H30         0.0046   -0.0039   -0.0194 H         1 <0>         0.1598
     63 H31         1.6397    3.6961    1.3291 H         1 <0>         0.1585
     64 N4         -1.0381    8.6596   -6.1359 N.4       1 <0>        -0.5064
     65 H32        -1.8875    9.2299   -6.0490 H         1 <0>         0.4410
     66 H33        -0.2122    9.2502   -5.9836 H         1 <0>         0.4397
@<TRIPOS>BOND
     1    1    2 1
     2    1   34 1
     3    1   35 1
     4    1   36 1
     5    2    3 1
     6    2   37 1
     7    2   64 1
     8    3   38 1
     9    3   39 1
    10    3   40 1
    11    4    5 1
    12    4   41 1
    13    4   42 1
    14    4   64 1
    15    5    6 2
    16    5    7 am
    17    7    8 1
    18    7   43 1
    19    8   12 1
    20    8    9 2
    21    9   10 1
    22    9   22 1
    23   10   17 1
    24   10   11 2
    25   11   12 1
    26   11   13 1
    27   13   14 1
    28   13   44 1
    29   13   45 1
    30   14   15 1
    31   14   16 1
    32   14   18 1
    33   16   17 1
    34   16   46 1
    35   16   47 1
    36   17   48 1
    37   17   49 1
    38   18   19 1
    39   18   20 1
    40   18   21 1
    41   19   50 1
    42   19   51 1
    43   19   52 1
    44   20   53 1
    45   20   54 1
    46   20   55 1
    47   21   56 1
    48   21   57 1
    49   21   58 1
    50   22   23 2
    51   22   24 am
    52   24   25 1
    53   24   59 1
    54   25   30 ar
    55   25   26 ar
    56   26   27 ar
    57   26   60 1
    58   27   28 ar
    59   27   61 1
    60   28   29 ar
    61   28   62 1
    62   29   30 ar
    63   29   31 1
    64   30   63 1
    65   31   32 2
    66   31   33 1
    67   64   65 1
    68   64   66 1
