@<TRIPOS>MOLECULE
ZINC36753759
   58    61     0     0     0
SMALL
USER_CHARGES

@<TRIPOS>ATOM
      1 C1         -0.0942    1.5192   -0.0878 C.3       1 <0>        -0.1547
      2 C2         -0.0541   -0.0052    0.0370 C.3       1 <0>        -0.0280
      3 C3          0.7737   -0.3949    1.2633 C.3       1 <0>        -0.0116
      4 C4          0.1883    0.2536    2.4912 C.2       1 <0>         0.1093
      5 N1         -0.7969   -0.1737    3.2259 N.2       1 <0>        -0.4919
      6 C5         -1.2313    0.5024    4.3094 C.ar      1 <0>         0.0835
      7 C6         -2.2717    0.1952    5.2110 C.ar      1 <0>        -0.0588
      8 C7         -2.5517    1.0244    6.2535 C.ar      1 <0>        -0.1095
      9 C8         -1.8320    2.1919    6.4676 C.ar      1 <0>        -0.0970
     10 C9         -0.8046    2.5266    5.6056 C.ar      1 <0>        -0.0650
     11 C10        -0.5142    1.6962    4.5504 C.ar      1 <0>        -0.1671
     12 S1          0.6661    1.6902    3.2264 S.3       1 <0>         0.0779
     13 C11        -1.4571   -0.5338    0.1893 C.ar      1 <0>        -0.0721
     14 C12        -2.5336    0.3294    0.1076 C.ar      1 <0>        -0.1124
     15 C13        -3.8206   -0.1555    0.2473 C.ar      1 <0>        -0.1173
     16 C14        -4.0310   -1.5038    0.4682 C.ar      1 <0>        -0.1136
     17 C15        -2.9544   -2.3672    0.5489 C.ar      1 <0>        -0.1118
     18 C16        -1.6677   -1.8829    0.4050 C.ar      1 <0>        -0.0924
     19 C17         0.5731   -0.5941   -1.2003 C.2       1 <0>         0.5341
     20 O1          1.5340   -1.3276   -1.1027 O.2       1 <0>        -0.5292
     21 N2          0.0662   -0.3056   -2.4153 N.am      1 <0>        -0.7199
     22 C18         0.6038   -0.9642   -3.6085 C.3       1 <0>         0.1610
     23 C19        -0.1300   -0.4701   -4.8285 C.ar      1 <0>        -0.0944
     24 C20        -1.2713   -1.1219   -5.2592 C.ar      1 <0>        -0.1045
     25 C21        -1.9473   -0.6722   -6.3784 C.ar      1 <0>        -0.0961
     26 C22        -1.4847    0.4303   -7.0699 C.ar      1 <0>        -0.1429
     27 C23        -0.3392    1.0874   -6.6399 C.ar      1 <0>         0.1364
     28 C24         0.3347    0.6360   -5.5119 C.ar      1 <0>        -0.1128
     29 N3          0.1314    2.2026   -7.3369 N.pl3     1 <0>        -1.0576
     30 S2         -0.9247    3.3827   -7.8210 S.o2      1 <0>         2.6083
     31 O2         -0.1192    4.3306   -8.5080 O.2       1 <0>        -0.9494
     32 O3         -1.9610    2.6860   -8.4990 O.2       1 <0>        -0.9472
     33 C25        -1.5588    4.1012   -6.2807 C.3       1 <0>        -0.6689
     34 H1          0.9205    1.9016   -0.1979 H         1 <0>         0.0726
     35 H2         -0.6840    1.7969   -0.9614 H         1 <0>         0.0695
     36 H3         -0.5479    1.9452    0.8072 H         1 <0>         0.0746
     37 H4          0.7588   -1.4783    1.3823 H         1 <0>         0.1098
     38 H5          1.8017   -0.0582    1.1296 H         1 <0>         0.1049
     39 H6         -2.8514   -0.7056    5.0727 H         1 <0>         0.1315
     40 H7         -3.3533    0.7680    6.9302 H         1 <0>         0.1340
     41 H8         -2.0733    2.8344    7.3015 H         1 <0>         0.1384
     42 H9         -0.2360    3.4317    5.7600 H         1 <0>         0.1336
     43 H10        -2.3693    1.3828   -0.0650 H         1 <0>         0.1220
     44 H11        -4.6616    0.5191    0.1842 H         1 <0>         0.1199
     45 H12        -5.0364   -1.8825    0.5780 H         1 <0>         0.1200
     46 H13        -3.1188   -3.4205    0.7219 H         1 <0>         0.1212
     47 H14        -0.8268   -2.5580    0.4644 H         1 <0>         0.1192
     48 H15        -0.6546    0.3380   -2.4998 H         1 <0>         0.4028
     49 H16         1.6647   -0.7330   -3.7041 H         1 <0>         0.0811
     50 H17         0.4736   -2.0426   -3.5180 H         1 <0>         0.0808
     51 H18        -1.6352   -1.9842   -4.7203 H         1 <0>         0.1287
     52 H19        -2.8379   -1.1838   -6.7124 H         1 <0>         0.1339
     53 H20        -2.0130    0.7808   -7.9443 H         1 <0>         0.1620
     54 H21         1.2236    1.1471   -5.1725 H         1 <0>         0.1317
     55 H22         1.0768    2.2859   -7.5374 H         1 <0>         0.4280
     56 H23        -0.7306    4.5131   -5.7040 H         1 <0>         0.1312
     57 H24        -2.2684    4.8947   -6.5151 H         1 <0>         0.1343
     58 H25        -2.0583    3.3276   -5.6976 H         1 <0>         0.1295
@<TRIPOS>BOND
     1    1    2 1
     2    1   34 1
     3    1   35 1
     4    1   36 1
     5    2    3 1
     6    2   13 1
     7    2   19 1
     8    3    4 1
     9    3   37 1
    10    3   38 1
    11    4   12 1
    12    4    5 2
    13    5    6 1
    14    6   11 ar
    15    6    7 ar
    16    7    8 ar
    17    7   39 1
    18    8    9 ar
    19    8   40 1
    20    9   10 ar
    21    9   41 1
    22   10   11 ar
    23   10   42 1
    24   11   12 1
    25   13   18 ar
    26   13   14 ar
    27   14   15 ar
    28   14   43 1
    29   15   16 ar
    30   15   44 1
    31   16   17 ar
    32   16   45 1
    33   17   18 ar
    34   17   46 1
    35   18   47 1
    36   19   20 2
    37   19   21 am
    38   21   22 1
    39   21   48 1
    40   22   23 1
    41   22   49 1
    42   22   50 1
    43   23   28 ar
    44   23   24 ar
    45   24   25 ar
    46   24   51 1
    47   25   26 ar
    48   25   52 1
    49   26   27 ar
    50   26   53 1
    51   27   28 ar
    52   27   29 1
    53   28   54 1
    54   29   30 1
    55   29   55 1
    56   30   31 2
    57   30   32 2
    58   30   33 1
    59   33   56 1
    60   33   57 1
    61   33   58 1
