@<TRIPOS>MOLECULE
ZINC65787219
   36    37     0     0     0
SMALL
USER_CHARGES

@<TRIPOS>ATOM
      1 C1          1.0875   -0.4456   -0.7558 C.ar      1 <0>        -0.0658
      2 C2          2.2499    0.3074   -0.7390 C.ar      1 <0>        -0.1298
      3 C3          2.2941    1.4650    0.0179 C.ar      1 <0>         0.1540
      4 N1          1.2471    1.8560    0.7195 N.ar      1 <0>        -0.4561
      5 C4          0.1225    1.1682    0.7304 C.ar      1 <0>         0.0952
      6 C5          0.0017   -0.0036   -0.0044 C.ar      1 <0>         0.1210
      7 N2         -1.1950   -0.7305    0.0100 N.am      1 <0>        -0.6803
      8 C6         -1.1689   -2.0736   -0.0992 C.2       1 <0>         0.7065
      9 O1         -0.1049   -2.6619   -0.1131 O.2       1 <0>        -0.5664
     10 N3         -2.3223   -2.7646   -0.1930 N.am      1 <0>        -0.7336
     11 C7         -2.2939   -4.2245   -0.3117 C.3       1 <0>         0.1700
     12 C8         -2.2045   -4.8480    1.0827 C.3       1 <0>        -0.1373
     13 C9         -3.4218   -4.4270    1.9085 C.3       1 <0>        -0.1129
     14 C10        -4.6988   -4.9072    1.2160 C.3       1 <0>        -0.1217
     15 C11        -4.7881   -4.2838   -0.1784 C.3       1 <0>        -0.1324
     16 C12        -3.5709   -4.7048   -1.0042 C.3       1 <0>        -0.1292
     17 C13        -6.0651   -4.7641   -0.8709 C.3       1 <0>         0.4536
     18 F1         -7.1781   -4.3791   -0.1157 F         1 <0>        -0.1818
     19 F2         -6.1468   -4.1940   -2.1458 F         1 <0>        -0.1828
     20 F3         -6.0380   -6.1582   -0.9842 F         1 <0>        -0.1798
     21 Cl1         3.7466    2.4153    0.0452 Cl        1 <0>        -0.0273
     22 H1          1.0234   -1.3510   -1.3411 H         1 <0>         0.1577
     23 H2          3.1118   -0.0055   -1.3096 H         1 <0>         0.1506
     24 H3         -0.7132    1.5196    1.3172 H         1 <0>         0.1673
     25 H4         -2.0427   -0.2675    0.0986 H         1 <0>         0.4118
     26 H5         -3.1711   -2.2953   -0.1819 H         1 <0>         0.3965
     27 H6         -1.4267   -4.5245   -0.9000 H         1 <0>         0.1022
     28 H7         -2.1835   -5.9342    0.9944 H         1 <0>         0.0797
     29 H8         -1.2948   -4.5058    1.5760 H         1 <0>         0.0763
     30 H9         -3.3581   -4.8711    2.9019 H         1 <0>         0.0747
     31 H10        -3.4429   -3.3407    1.9968 H         1 <0>         0.0646
     32 H11        -4.6777   -5.9934    1.1277 H         1 <0>         0.0813
     33 H12        -5.5659   -4.6073    1.8044 H         1 <0>         0.0794
     34 H13        -4.8092   -3.1976   -0.0900 H         1 <0>         0.1094
     35 H14        -3.6345   -4.2607   -1.9976 H         1 <0>         0.0867
     36 H15        -3.5498   -5.7910   -1.0925 H         1 <0>         0.0987
@<TRIPOS>BOND
     1    1    6 ar
     2    1    2 ar
     3    1   22 1
     4    2    3 ar
     5    2   23 1
     6    3    4 ar
     7    3   21 1
     8    4    5 ar
     9    5    6 ar
    10    5   24 1
    11    6    7 1
    12    7    8 am
    13    7   25 1
    14    8    9 2
    15    8   10 am
    16   10   11 1
    17   10   26 1
    18   11   16 1
    19   11   12 1
    20   11   27 1
    21   12   13 1
    22   12   28 1
    23   12   29 1
    24   13   14 1
    25   13   30 1
    26   13   31 1
    27   14   15 1
    28   14   32 1
    29   14   33 1
    30   15   16 1
    31   15   17 1
    32   15   34 1
    33   16   35 1
    34   16   36 1
    35   17   18 1
    36   17   19 1
    37   17   20 1
