@<TRIPOS>MOLECULE
ZINC40341734
   74    78     0     0     0
SMALL
USER_CHARGES

@<TRIPOS>ATOM
      1 C1         -0.0184    1.5028    0.0103 C.3       1 <0>        -0.1235
      2 C2          0.0021   -0.0041    0.0020 C.ar      1 <0>        -0.0643
      3 C3          0.0057   -0.6863   -1.2015 C.ar      1 <0>        -0.1147
      4 C4          0.0239   -2.0659   -1.2157 C.ar      1 <0>        -0.0958
      5 C5          0.0392   -2.7727   -0.0132 C.ar      1 <0>        -0.0461
      6 C6          0.0359   -2.0790    1.1969 C.ar      1 <0>        -0.0839
      7 C7          0.0229   -0.6993    1.1979 C.ar      1 <0>        -0.1192
      8 C8          0.0583   -4.2526   -0.0214 C.2       1 <0>         0.1197
      9 C9          0.8429   -5.0577    0.7405 C.2       1 <0>        -0.2059
     10 C10         0.5048   -6.3823    0.3824 C.2       1 <0>        -0.0396
     11 N1         -0.4313   -6.3028   -0.5422 N.2       1 <0>        -0.1942
     12 H1         -1.3759   -4.7743   -1.4347 H         1 <0>         0.4569
     13 N2         -0.7139   -5.0739   -0.7922 N.pl3     1 <0>        -0.3714
     14 C11         1.3358   -7.2950    1.1882 C.2       1 <0>         0.6138
     15 O1          1.2942   -8.5083    1.1254 O.2       1 <0>        -0.5026
     16 N3          2.1460   -6.5968    2.0021 N.am      1 <0>        -0.6032
     17 C12         1.9106   -5.1632    1.7948 C.3       1 <0>         0.2680
     18 H2          1.5684   -4.7023    2.7214 H         1 <0>         0.1082
     19 C13         3.1749   -4.4947    1.3197 C.ar      1 <0>        -0.0918
     20 C14         4.0049   -5.1450    0.4255 C.ar      1 <0>        -0.0973
     21 C15         5.1657   -4.5360   -0.0133 C.ar      1 <0>        -0.1825
     22 C16         5.4994   -3.2708    0.4427 C.ar      1 <0>         0.1102
     23 C17         4.6638   -2.6160    1.3423 C.ar      1 <0>         0.1080
     24 C18         3.4992   -3.2302    1.7745 C.ar      1 <0>        -0.1497
     25 O2          4.9869   -1.3742    1.7927 O.3       1 <0>        -0.3017
     26 C19         4.0823   -0.7627    2.7146 C.3       1 <0>         0.0234
     27 O3          6.6412   -2.6705    0.0123 O.3       1 <0>        -0.3003
     28 C20         7.4507   -3.4020   -0.9105 C.3       1 <0>         0.0612
     29 C21         8.6826   -2.5722   -1.2776 C.3       1 <0>        -0.1173
     30 C22         9.5493   -3.3555   -2.2656 C.3       1 <0>        -0.0887
     31 C23         8.7836   -3.5451   -3.5767 C.3       1 <0>        -0.1566
     32 C24        10.8406   -2.5810   -2.5366 C.3       1 <0>        -0.1507
     33 C25         3.1082   -7.1737    2.9443 C.3       1 <0>         0.1471
     34 C26         4.4579   -7.3562    2.2472 C.3       1 <0>        -0.1792
     35 C27         5.4627   -7.9586    3.2312 C.3       1 <0>         0.0939
     36 N4          6.7551   -8.1333    2.5637 N.pl3     1 <0>        -0.4034
     37 C28         7.1700   -9.2406    1.8742 C.2       1 <0>         0.0284
     38 C29         8.4126   -8.9777    1.4263 C.2       1 <0>         0.0026
     39 N5          8.7472   -7.7436    1.8313 N.pl3     1 <0>        -0.4764
     40 C30         7.7573   -7.2298    2.5088 C.cat     1 <0>         0.2860
     41 H3          1.0042    1.8801    0.0026 H         1 <0>         0.0759
     42 H4         -0.5455    1.8639   -0.8728 H         1 <0>         0.0714
     43 H5         -0.5286    1.8543    0.9071 H         1 <0>         0.0715
     44 H6         -0.0062   -0.1379   -2.1318 H         1 <0>         0.1297
     45 H7          0.0260   -2.5974   -2.1558 H         1 <0>         0.1232
     46 H8          0.0474   -2.6207    2.1312 H         1 <0>         0.1258
     47 H9          0.0248   -0.1610    2.1342 H         1 <0>         0.1301
     48 H10         3.7460   -6.1312    0.0694 H         1 <0>         0.1217
     49 H11         5.8128   -5.0465   -0.7113 H         1 <0>         0.1310
     50 H12         2.8470   -2.7226    2.4698 H         1 <0>         0.1397
     51 H13         4.4579    0.2219    2.9932 H         1 <0>         0.1049
     52 H14         3.1027   -0.6593    2.2480 H         1 <0>         0.0587
     53 H15         3.9964   -1.3844    3.6059 H         1 <0>         0.0561
     54 H16         7.7672   -4.3392   -0.4526 H         1 <0>         0.0507
     55 H17         6.8740   -3.6141   -1.8108 H         1 <0>         0.0652
     56 H18         8.3661   -1.6351   -1.7355 H         1 <0>         0.0793
     57 H19         9.2592   -2.3601   -0.3773 H         1 <0>         0.0750
     58 H20         9.7921   -4.3302   -1.8425 H         1 <0>         0.0662
     59 H21         9.4011   -4.1031   -4.2806 H         1 <0>         0.0600
     60 H22         7.8636   -4.0969   -3.3836 H         1 <0>         0.0523
     61 H23         8.5407   -2.5704   -3.9998 H         1 <0>         0.0611
     62 H24        11.3861   -2.4459   -1.6026 H         1 <0>         0.0568
     63 H25        11.4581   -3.1390   -3.2405 H         1 <0>         0.0601
     64 H26        10.5977   -1.6063   -2.9598 H         1 <0>         0.0602
     65 H27         3.2271   -6.5054    3.7971 H         1 <0>         0.0968
     66 H28         2.7436   -8.1414    3.2891 H         1 <0>         0.1002
     67 H29         4.3390   -8.0245    1.3944 H         1 <0>         0.0883
     68 H30         4.8224   -6.3885    1.9024 H         1 <0>         0.0989
     69 H31         5.5816   -7.2903    4.0840 H         1 <0>         0.1245
     70 H32         5.0982   -8.9263    3.5760 H         1 <0>         0.1285
     71 H33         6.6090  -10.1503    1.7194 H         1 <0>         0.2233
     72 H34         9.0312   -9.6438    0.8432 H         1 <0>         0.2237
     73 H35         7.7429   -6.2460    2.9542 H         1 <0>         0.2571
     74 H36         9.5905   -7.3013    1.6465 H         1 <0>         0.4644
@<TRIPOS>BOND
     1    1    2 1
     2    1   41 1
     3    1   42 1
     4    1   43 1
     5    2    7 ar
     6    2    3 ar
     7    3    4 ar
     8    3   44 1
     9    4    5 ar
    10    4   45 1
    11    5    6 ar
    12    5    8 1
    13    6    7 ar
    14    6   46 1
    15    7   47 1
    16    8    9 2
    17    8   13 1
    18    9   17 1
    19    9   10 1
    20   10   14 1
    21   10   11 2
    22   11   13 1
    23   12   13 1
    24   14   15 2
    25   14   16 am
    26   16   17 1
    27   16   33 1
    28   17   18 1
    29   17   19 1
    30   19   24 ar
    31   19   20 ar
    32   20   21 ar
    33   20   48 1
    34   21   22 ar
    35   21   49 1
    36   22   23 ar
    37   22   27 1
    38   23   24 ar
    39   23   25 1
    40   24   50 1
    41   25   26 1
    42   26   51 1
    43   26   52 1
    44   26   53 1
    45   27   28 1
    46   28   29 1
    47   28   54 1
    48   28   55 1
    49   29   30 1
    50   29   56 1
    51   29   57 1
    52   30   31 1
    53   30   32 1
    54   30   58 1
    55   31   59 1
    56   31   60 1
    57   31   61 1
    58   32   62 1
    59   32   63 1
    60   32   64 1
    61   33   34 1
    62   33   65 1
    63   33   66 1
    64   34   35 1
    65   34   67 1
    66   34   68 1
    67   35   36 1
    68   35   69 1
    69   35   70 1
    70   36   40 1
    71   36   37 1
    72   37   38 2
    73   37   71 1
    74   38   39 1
    75   38   72 1
    76   39   40 2
    77   39   74 1
    78   40   73 1
