@<TRIPOS>MOLECULE
ZINC20359410
   31    31     0     0     0
SMALL
USER_CHARGES
(2R)-N-allyl-2-[(2,3-dichlorophenyl)amino]propanamide
@<TRIPOS>ATOM
      1 C1          3.4159    4.1073   -1.4444 C.3       1 <0>        -0.1664
      2 C2          3.5624    3.5909   -0.0117 C.3       1 <0>         0.1338
      3 H1          2.7127    3.9074    0.6111 H         1 <0>         0.1074
      4 C3          4.8490    4.1072    0.5793 C.2       1 <0>         0.5118
      5 O1          5.6988    3.3283    0.9562 O.2       1 <0>        -0.5341
      6 N1          5.0553    5.4346    0.6889 N.am      1 <0>        -0.7324
      7 C4          6.3060    5.9365    1.2634 C.3       1 <0>         0.1485
      8 C5          6.2856    7.4434    1.2722 C.2       1 <0>        -0.1841
      9 C6          6.4846    8.0946    2.3913 C.2       1 <0>        -0.1639
     10 N2          3.5822    2.1261   -0.0202 N.pl3     1 <0>        -0.7352
     11 C7          2.3816    1.4110   -0.0126 C.ar      1 <0>         0.2507
     12 C8          1.1686    2.0876    0.0021 C.ar      1 <0>        -0.1954
     13 C9         -0.0167    1.3786    0.0096 C.ar      1 <0>        -0.0499
     14 C10         0.0021   -0.0041    0.0020 C.ar      1 <0>        -0.1643
     15 C11         1.2081   -0.6826   -0.0136 C.ar      1 <0>         0.0213
     16 C12         2.3986    0.0215   -0.0207 C.ar      1 <0>        -0.1149
     17 Cl1         3.9117   -0.8293   -0.0391 Cl        1 <0>        -0.0492
     18 Cl2         1.2267   -2.4185   -0.0237 Cl        1 <0>        -0.0491
     19 H2          2.4768    3.7304   -1.8757 H         1 <0>         0.0753
     20 H3          4.2645    3.7555   -2.0495 H         1 <0>         0.0685
     21 H4          3.4011    5.2072   -1.4380 H         1 <0>         0.0725
     22 H5          4.2846    6.1411    0.3470 H         1 <0>         0.4245
     23 H6          6.4113    5.5652    2.2935 H         1 <0>         0.0716
     24 H7          7.1546    5.5848    0.6583 H         1 <0>         0.0761
     25 H8          6.1036    7.9965    0.3389 H         1 <0>         0.1191
     26 H9          6.4697    9.1945    2.3977 H         1 <0>         0.1078
     27 H10         6.6666    7.5415    3.3246 H         1 <0>         0.1028
     28 H11         4.5421    1.5891   -0.0326 H         1 <0>         0.4363
     29 H12         1.1523    3.1674    0.0077 H         1 <0>         0.1348
     30 H13        -0.9597    1.9049    0.0169 H         1 <0>         0.1376
     31 H14        -0.9265   -0.5556    0.0079 H         1 <0>         0.1386
@<TRIPOS>BOND
     1    1    2 1
     2    1   19 1
     3    1   20 1
     4    1   21 1
     5    2    3 1
     6    2    4 1
     7    2   10 1
     8    4    5 2
     9    4    6 am
    10    6    7 1
    11    6   22 1
    12    7    8 1
    13    7   23 1
    14    7   24 1
    15    8    9 2
    16    8   25 1
    17    9   26 1
    18    9   27 1
    19   10   11 1
    20   10   28 1
    21   11   16 ar
    22   11   12 ar
    23   12   13 ar
    24   12   29 1
    25   13   14 ar
    26   13   30 1
    27   14   15 ar
    28   14   31 1
    29   15   16 ar
    30   15   18 1
    31   16   17 1
