@<TRIPOS>MOLECULE
ZINC14985714
   65    68     0     0     0
SMALL
USER_CHARGES
(6S)-N-(3-dimethylamino-2,2-dimethyl-propyl)-11-methyl-9-oxo-6-(3-thienyl)-6,7-dihydropyrido[2,1-d][1,5]benzothiazepine-8-carboxamide
@<TRIPOS>ATOM
      1 C1         -1.8542    2.2226   -0.9183 C.3       1 <0>        -0.1420
      2 C2         -0.4726    2.0860   -0.3322 C.2       1 <0>         0.1649
      3 C3          0.5829    1.9990   -1.1639 C.2       1 <0>        -0.2570
      4 C4          1.8832    1.8563   -0.6200 C.2       1 <0>         0.4179
      5 O1          2.8696    1.8325   -1.3393 O.2       1 <0>        -0.4942
      6 C5          2.0039    1.7386    0.8398 C.2       1 <0>        -0.2965
      7 C6          0.8535    1.8184    1.6051 C.2       1 <0>         0.2219
      8 N1         -0.3307    2.0543    1.0234 N.pl3     1 <0>        -0.4099
      9 C7         -1.4681    2.2935    1.8140 C.ar      1 <0>         0.1272
     10 C8         -2.6360    1.5797    1.5923 C.ar      1 <0>        -0.1216
     11 C9         -3.7477    1.8246    2.3776 C.ar      1 <0>        -0.0765
     12 C10        -3.6998    2.7754    3.3814 C.ar      1 <0>        -0.1088
     13 C11        -2.5399    3.4947    3.6051 C.ar      1 <0>        -0.0511
     14 C12        -1.4221    3.2505    2.8225 C.ar      1 <0>        -0.1240
     15 S1          0.0724    4.1513    3.0859 S.3       1 <0>        -0.1042
     16 C13         1.1723    2.9061    3.8380 C.3       1 <0>        -0.0086
     17 H1          0.9231    2.7784    4.8915 H         1 <0>         0.1170
     18 C14         0.9534    1.5848    3.0859 C.3       1 <0>        -0.1038
     19 C15         2.6085    3.3416    3.7008 C.2       1 <0>        -0.0919
     20 C16         2.9821    4.2229    2.7036 C.2       1 <0>        -0.1487
     21 C17         4.2821    4.5944    2.6078 C.2       1 <0>        -0.1004
     22 S2          5.0254    3.6876    3.9541 S.3       1 <0>         0.0333
     23 C18         3.5522    2.8792    4.5569 C.2       1 <0>        -0.1926
     24 C19         3.3185    1.5407    1.4738 C.2       1 <0>         0.5976
     25 O2          4.1784    2.3945    1.3699 O.2       1 <0>        -0.4910
     26 N2          3.5685    0.4136    2.1692 N.am      1 <0>        -0.7297
     27 C20         4.8346    0.2638    2.8909 C.3       1 <0>         0.1021
     28 C21         4.8196   -1.0467    3.6805 C.3       1 <0>        -0.0997
     29 C22         3.5960   -1.0749    4.5986 C.3       1 <0>        -0.1471
     30 C23         4.7554   -2.2268    2.7088 C.3       1 <0>        -0.1737
     31 C24         6.0923   -1.1487    4.5235 C.3       1 <0>         0.0063
     32 C25         8.3701   -0.3324    4.6106 C.3       1 <0>        -0.0452
     33 C26         7.6343   -1.6695    2.7309 C.3       1 <0>        -0.0561
     34 H2         -2.2684    3.1943   -0.6497 H         1 <0>         0.0887
     35 H3         -1.7983    2.1389   -2.0037 H         1 <0>         0.0987
     36 H4         -2.4951    1.4332   -0.5256 H         1 <0>         0.0945
     37 H5          0.4397    2.0373   -2.2337 H         1 <0>         0.1611
     38 H6         -2.6771    0.8358    0.8105 H         1 <0>         0.1483
     39 H7         -4.6585    1.2701    2.2064 H         1 <0>         0.1439
     40 H8         -4.5727    2.9592    3.9903 H         1 <0>         0.1425
     41 H9         -2.5031    4.2368    4.3889 H         1 <0>         0.1472
     42 H10         0.0320    1.1209    3.4381 H         1 <0>         0.0953
     43 H11         1.7898    0.9155    3.2872 H         1 <0>         0.1147
     44 H12         2.2490    4.6100    2.0114 H         1 <0>         0.1397
     45 H13         4.7476    5.2647    1.9004 H         1 <0>         0.1844
     46 H14         3.4418    2.1978    5.3875 H         1 <0>         0.1798
     47 H15         2.9102   -0.2985    2.1917 H         1 <0>         0.4013
     48 H16         5.6594    0.2493    2.1785 H         1 <0>         0.0593
     49 H17         4.9624    1.1004    3.5778 H         1 <0>         0.0887
     50 H18         2.6889   -1.0971    3.9946 H         1 <0>         0.0737
     51 H19         3.6348   -1.9636    5.2285 H         1 <0>         0.0767
     52 H20         3.5925   -0.1841    5.2268 H         1 <0>         0.0712
     53 H21         5.6503   -2.2341    2.0865 H         1 <0>         0.0704
     54 H22         4.6969   -3.1583    3.2719 H         1 <0>         0.0783
     55 H23         3.8735   -2.1288    2.0759 H         1 <0>         0.0776
     56 H24         5.9860   -0.5345    5.4177 H         1 <0>         0.1336
     57 H25         6.2539   -2.1870    4.8131 H         1 <0>         0.1398
     58 H26         8.6734   -1.2140    5.1755 H         1 <0>         0.1251
     59 H27         9.2058    0.0151    4.0032 H         1 <0>         0.1245
     60 H28         8.0701    0.4560    5.3010 H         1 <0>         0.1223
     61 H29         6.9679   -1.6004    1.8711 H         1 <0>         0.1277
     62 H30         8.6589   -1.4772    2.4127 H         1 <0>         0.1253
     63 H31         7.5690   -2.6685    3.1618 H         1 <0>         0.1269
     64 N3          7.2315   -0.6514    3.7238 N.4       1 <0>        -0.4058
     65 H32         6.9447    0.2016    3.2293 H         1 <0>         0.4307
@<TRIPOS>BOND
     1    1    2 1
     2    1   34 1
     3    1   35 1
     4    1   36 1
     5    2    8 1
     6    2    3 2
     7    3    4 1
     8    3   37 1
     9    4    5 2
    10    4    6 1
    11    6    7 2
    12    6   24 1
    13    7   18 1
    14    7    8 1
    15    8    9 1
    16    9   14 ar
    17    9   10 ar
    18   10   11 ar
    19   10   38 1
    20   11   12 ar
    21   11   39 1
    22   12   13 ar
    23   12   40 1
    24   13   14 ar
    25   13   41 1
    26   14   15 1
    27   15   16 1
    28   16   17 1
    29   16   18 1
    30   16   19 1
    31   18   42 1
    32   18   43 1
    33   19   23 2
    34   19   20 1
    35   20   21 2
    36   20   44 1
    37   21   22 1
    38   21   45 1
    39   22   23 1
    40   23   46 1
    41   24   25 2
    42   24   26 am
    43   26   27 1
    44   26   47 1
    45   27   28 1
    46   27   48 1
    47   27   49 1
    48   28   29 1
    49   28   30 1
    50   28   31 1
    51   29   50 1
    52   29   51 1
    53   29   52 1
    54   30   53 1
    55   30   54 1
    56   30   55 1
    57   31   56 1
    58   31   57 1
    59   31   64 1
    60   32   58 1
    61   32   59 1
    62   32   60 1
    63   32   64 1
    64   33   61 1
    65   33   62 1
    66   33   63 1
    67   33   64 1
    68   64   65 1
