@<TRIPOS>MOLECULE
ZINC20838852
   66    68     0     0     0
SMALL
USER_CHARGES
2-[(5-tert-butyl-4-phenyl-1,2,4-triazol-3-yl)sulfanyl]-N-(2,2,6,6-tetramethyl-4-piperidyl)acetamide
@<TRIPOS>ATOM
      1 C1         -4.0440   -4.0316   -4.0960 C.3       1 <0>        -0.1798
      2 C2         -3.7707   -4.5383   -2.6749 C.3       1 <0>         0.0723
      3 C3         -2.4504   -3.9600   -2.1719 C.3       1 <0>        -0.1402
      4 C4         -2.6231   -2.4885   -1.7964 C.3       1 <0>         0.1414
      5 C5         -3.6740   -2.3894   -0.6910 C.3       1 <0>        -0.1441
      6 C6         -5.0091   -2.9503   -1.1744 C.3       1 <0>         0.0542
      7 N1         -4.8843   -4.2528   -1.7944 N.4       1 <0>        -0.5137
      8 C7         -5.6730   -1.9461   -2.1241 C.3       1 <0>        -0.1769
      9 C8         -5.9290   -3.0895    0.0591 C.3       1 <0>        -0.1796
     10 N2         -1.3457   -1.9635   -1.2977 N.am      1 <0>        -0.7376
     11 C9         -1.0822   -0.6442   -1.3775 C.2       1 <0>         0.5437
     12 O1         -1.9001    0.1094   -1.8613 O.2       1 <0>        -0.5195
     13 C10         0.2289   -0.1054   -0.8657 C.3       1 <0>        -0.1570
     14 S1          0.2820    1.6870   -1.1121 S.3       1 <0>         0.0897
     15 C11         1.8741    2.0405   -0.4452 C.2       1 <0>         0.1378
     16 N3          2.7142    1.1740    0.0719 N.2       1 <0>        -0.2909
     17 N4          3.7819    1.7761    0.4578 N.2       1 <0>        -0.2761
     18 C12         3.6867    3.0542    0.2219 C.2       1 <0>         0.2192
     19 N5          2.4670    3.2705   -0.3626 N.pl3     1 <0>        -0.4131
     20 C13         1.9362    4.4974   -0.7871 C.ar      1 <0>         0.1000
     21 C14         2.4458    5.1218   -1.9173 C.ar      1 <0>        -0.1000
     22 C15         1.9179    6.3276   -2.3357 C.ar      1 <0>        -0.1051
     23 C16         0.8899    6.9180   -1.6238 C.ar      1 <0>        -0.0959
     24 C17         0.3838    6.3010   -0.4946 C.ar      1 <0>        -0.1044
     25 C18         0.9042    5.0924   -0.0745 C.ar      1 <0>        -0.0972
     26 C19         4.7256    4.1001    0.5345 C.3       1 <0>         0.0213
     27 C20         4.0904    5.2179    1.3640 C.3       1 <0>        -0.1514
     28 C21         5.8683    3.4628    1.3276 C.3       1 <0>        -0.1346
     29 C22         5.2728    4.6815   -0.7706 C.3       1 <0>        -0.1609
     30 C23        -3.6042   -6.0719   -2.7605 C.3       1 <0>        -0.1781
     31 H1         -3.1824   -4.2625   -4.7396 H         1 <0>         0.1047
     32 H2         -4.2033   -2.9434   -4.0730 H         1 <0>         0.0817
     33 H3         -4.9424   -4.5253   -4.4949 H         1 <0>         0.0847
     34 H4         -2.1191   -4.5199   -1.2849 H         1 <0>         0.0965
     35 H5         -1.6896   -4.0415   -2.9622 H         1 <0>         0.1157
     36 H6         -2.9073   -1.8852   -2.6712 H         1 <0>         0.1065
     37 H7         -3.3399   -2.9645    0.1851 H         1 <0>         0.0916
     38 H8         -3.8098   -1.3352   -0.4076 H         1 <0>         0.1114
     39 H9         -5.8282   -4.3730   -2.3463 H         1 <0>         0.4466
     40 H10        -6.6348   -2.3510   -2.4719 H         1 <0>         0.0820
     41 H11        -5.0158   -1.7690   -2.9882 H         1 <0>         0.0815
     42 H12        -5.8447   -0.9979   -1.5935 H         1 <0>         0.1047
     43 H13        -6.9035   -3.4926   -0.2539 H         1 <0>         0.0845
     44 H14        -6.0723   -2.1024    0.5228 H         1 <0>         0.1067
     45 H15        -5.4661   -3.7726    0.7865 H         1 <0>         0.0822
     46 H16        -0.6038   -2.6470   -0.8590 H         1 <0>         0.4329
     47 H17         0.3245   -0.3311    0.2066 H         1 <0>         0.1305
     48 H18         1.0580   -0.5757   -1.4147 H         1 <0>         0.1308
     49 H19         3.2517    4.6633   -2.4711 H         1 <0>         0.1353
     50 H20         2.3112    6.8119   -3.2173 H         1 <0>         0.1385
     51 H21         0.4812    7.8628   -1.9507 H         1 <0>         0.1361
     52 H22        -0.4189    6.7646    0.0596 H         1 <0>         0.1377
     53 H23         0.5083    4.6108    0.8074 H         1 <0>         0.1302
     54 H24         4.8487    5.9814    1.5922 H         1 <0>         0.0766
     55 H25         3.6970    4.7999    2.3023 H         1 <0>         0.0610
     56 H26         3.2688    5.6760    0.7938 H         1 <0>         0.0606
     57 H27         6.6266    4.2263    1.5558 H         1 <0>         0.0698
     58 H28         6.3249    2.6591    0.7312 H         1 <0>         0.0680
     59 H29         5.4748    3.0448    2.2659 H         1 <0>         0.0644
     60 H30         6.0311    5.4449   -0.5424 H         1 <0>         0.0771
     61 H31         4.4512    5.1397   -1.3408 H         1 <0>         0.0673
     62 H32         5.7294    3.8779   -1.3670 H         1 <0>         0.0632
     63 H33        -3.4058   -6.4758   -1.7567 H         1 <0>         0.0815
     64 H34        -2.7619   -6.3127   -3.4257 H         1 <0>         0.1060
     65 H35        -4.5264   -6.5191   -3.1600 H         1 <0>         0.0844
     66 H36        -4.8663   -4.9489   -0.9428 H         1 <0>         0.4435
@<TRIPOS>BOND
     1    1    2 1
     2    1   31 1
     3    1   32 1
     4    1   33 1
     5    2    7 1
     6    2    3 1
     7    2   30 1
     8    3    4 1
     9    3   34 1
    10    3   35 1
    11    4    5 1
    12    4   10 1
    13    4   36 1
    14    5    6 1
    15    5   37 1
    16    5   38 1
    17    6    7 1
    18    6    8 1
    19    6    9 1
    20    7   39 1
    21    7   66 1
    22    8   40 1
    23    8   41 1
    24    8   42 1
    25    9   43 1
    26    9   44 1
    27    9   45 1
    28   10   11 am
    29   10   46 1
    30   11   12 2
    31   11   13 1
    32   13   14 1
    33   13   47 1
    34   13   48 1
    35   14   15 1
    36   15   19 1
    37   15   16 2
    38   16   17 1
    39   17   18 2
    40   18   19 1
    41   18   26 1
    42   19   20 1
    43   20   25 ar
    44   20   21 ar
    45   21   22 ar
    46   21   49 1
    47   22   23 ar
    48   22   50 1
    49   23   24 ar
    50   23   51 1
    51   24   25 ar
    52   24   52 1
    53   25   53 1
    54   26   27 1
    55   26   28 1
    56   26   29 1
    57   27   54 1
    58   27   55 1
    59   27   56 1
    60   28   57 1
    61   28   58 1
    62   28   59 1
    63   29   60 1
    64   29   61 1
    65   29   62 1
    66   30   63 1
    67   30   64 1
    68   30   65 1
