@<TRIPOS>MOLECULE
ZINC59404938
   45    46     0     0     0
SMALL
USER_CHARGES

@<TRIPOS>ATOM
      1 C1          1.4811    1.3628    1.9795 C.3       1 <0>        -0.1553
      2 C2          1.7223   -0.1127    1.6542 C.3       1 <0>        -0.1532
      3 C3          0.3905   -0.7840    1.3128 C.3       1 <0>        -0.0294
      4 N1          0.6167   -2.2093    1.0384 N.4       1 <0>        -0.3690
      5 C4          1.0919   -2.8736    2.2594 C.3       1 <0>        -0.0354
      6 C5          0.0082   -2.8362    3.3059 C.2       1 <0>         0.5024
      7 O1         -1.0554   -2.3081    3.0589 O.2       1 <0>        -0.4893
      8 N2          0.2208   -3.3895    4.5163 N.am      1 <0>        -0.5945
      9 C6         -0.7774   -3.3551    5.4802 C.2       1 <0>         0.0173
     10 C7         -0.7350   -3.8631    6.7694 C.2       1 <0>        -0.1062
     11 C8         -1.9234   -3.6902    7.5721 C.2       1 <0>        -0.0965
     12 C9         -2.9469   -3.0505    6.9748 C.2       1 <0>        -0.2182
     13 S1         -2.3093   -2.6826    5.3548 S.3       1 <0>         0.3097
     14 C10         0.4276   -4.5259    7.2792 C.1       1 <0>         0.2533
     15 N3          1.3498   -5.0517    7.6836 N.1       1 <0>        -0.4011
     16 C11         1.6257   -2.3500   -0.0199 C.3       1 <0>         0.0749
     17 H1          2.5645   -1.9064    0.3117 H         1 <0>         0.1543
     18 C12         1.1424   -1.6356   -1.2836 C.3       1 <0>        -0.1774
     19 C13         1.8389   -3.8115   -0.3195 C.ar      1 <0>        -0.1321
     20 C14         0.7585   -4.6735   -0.3587 C.ar      1 <0>        -0.1110
     21 C15         0.9527   -6.0141   -0.6329 C.ar      1 <0>        -0.0811
     22 C16         2.2286   -6.4941   -0.8689 C.ar      1 <0>        -0.0135
     23 C17         3.3103   -5.6309   -0.8301 C.ar      1 <0>        -0.0255
     24 C18         3.1135   -4.2883   -0.5606 C.ar      1 <0>        -0.0691
     25 Cl1         4.9119   -6.2318   -1.1255 Cl        1 <0>        -0.0145
     26 Cl2         2.4731   -8.1781   -1.2128 Cl        1 <0>        -0.0140
     27 H2          0.8058    1.4413    2.8315 H         1 <0>         0.0681
     28 H3          2.4299    1.8410    2.2227 H         1 <0>         0.0782
     29 H4          1.0358    1.8571    1.1162 H         1 <0>         0.0700
     30 H5          2.3977   -0.1912    0.8022 H         1 <0>         0.0898
     31 H6          2.1676   -0.6070    2.5176 H         1 <0>         0.0806
     32 H7         -0.2948   -0.6802    2.1541 H         1 <0>         0.1512
     33 H8         -0.0408   -0.3084    0.4320 H         1 <0>         0.1415
     34 H9          1.3442   -3.9099    2.0346 H         1 <0>         0.1665
     35 H10         1.9761   -2.3573    2.6334 H         1 <0>         0.1710
     36 H11         1.0714   -3.8119    4.7139 H         1 <0>         0.4290
     37 H12        -1.9873   -4.0516    8.5878 H         1 <0>         0.1577
     38 H13        -3.9190   -2.8147    7.3819 H         1 <0>         0.2018
     39 H14         1.8291   -1.8440   -2.1040 H         1 <0>         0.1121
     40 H15         0.1460   -1.9925   -1.5442 H         1 <0>         0.0860
     41 H16         1.1077   -0.5612   -1.1028 H         1 <0>         0.0927
     42 H17        -0.2376   -4.2991   -0.1745 H         1 <0>         0.1361
     43 H18         0.1085   -6.6870   -0.6626 H         1 <0>         0.1574
     44 H19         3.9564   -3.6136   -0.5342 H         1 <0>         0.1556
     45 H20        -0.2473   -2.6353    0.7383 H         1 <0>         0.4291
@<TRIPOS>BOND
     1    1    2 1
     2    1   27 1
     3    1   28 1
     4    1   29 1
     5    2    3 1
     6    2   30 1
     7    2   31 1
     8    3    4 1
     9    3   32 1
    10    3   33 1
    11    4    5 1
    12    4   16 1
    13    4   45 1
    14    5    6 1
    15    5   34 1
    16    5   35 1
    17    6    7 2
    18    6    8 am
    19    8    9 1
    20    8   36 1
    21    9   13 1
    22    9   10 2
    23   10   11 1
    24   10   14 1
    25   11   12 2
    26   11   37 1
    27   12   13 1
    28   12   38 1
    29   14   15 3
    30   16   17 1
    31   16   18 1
    32   16   19 1
    33   18   39 1
    34   18   40 1
    35   18   41 1
    36   19   24 ar
    37   19   20 ar
    38   20   21 ar
    39   20   42 1
    40   21   22 ar
    41   21   43 1
    42   22   23 ar
    43   22   26 1
    44   23   24 ar
    45   23   25 1
    46   24   44 1
