@<TRIPOS>MOLECULE
ZINC05636375
   30    32     0     0     0
SMALL
USER_CHARGES

@<TRIPOS>ATOM
      1 C1          1.3555    1.4173   -1.1595 C.ar      1 <0>        -0.1004
      2 C2          1.1754    2.0863    0.0386 C.ar      1 <0>        -0.1018
      3 C3          1.0193    1.3784    1.2165 C.ar      1 <0>        -0.0859
      4 C4          1.0422   -0.0020    1.2038 C.ar      1 <0>        -0.0744
      5 C5          1.2230   -0.6826   -0.0016 C.ar      1 <0>        -0.1028
      6 C6          1.3799    0.0385   -1.1864 C.ar      1 <0>        -0.0820
      7 C7          1.2492   -2.1616   -0.0230 C.2       1 <0>         0.4587
      8 O1          2.3096   -2.7506   -0.1395 O.2       1 <0>        -0.4547
      9 C8          0.0436   -2.8919    0.0918 C.2       1 <0>        -0.2481
     10 C9          0.0776   -4.2932    0.1889 C.2       1 <0>         0.2052
     11 N1         -0.9730   -5.1458    0.2987 N.pl3     1 <0>        -0.6162
     12 C10        -0.7484   -6.5058    0.3838 C.ar      1 <0>         0.1153
     13 C11        -1.6757   -7.5510    0.5013 C.ar      1 <0>        -0.1135
     14 C12        -1.2526   -8.8576    0.5733 C.ar      1 <0>        -0.0743
     15 C13         0.0941   -9.1789    0.5321 C.ar      1 <0>        -0.1160
     16 C14         1.0297   -8.1661    0.4165 C.ar      1 <0>        -0.0318
     17 C15         0.6083   -6.8593    0.3444 C.ar      1 <0>        -0.2081
     18 S1          1.4279   -5.2941    0.1880 S.3       1 <0>         0.2920
     19 C16        -1.2118   -2.2032    0.1092 C.1       1 <0>         0.2680
     20 N2         -2.2077   -1.6568    0.1229 N.1       1 <0>        -0.4248
     21 I1          0.8069   -1.0725    2.9891 I         1 <0>        -0.0311
     22 H1          1.4727    1.9761   -2.0762 H         1 <0>         0.1361
     23 H2          1.1571    3.1661    0.0539 H         1 <0>         0.1356
     24 H3          0.8795    1.9065    2.1481 H         1 <0>         0.1346
     25 H4          1.5202   -0.4821   -2.1221 H         1 <0>         0.1363
     26 H5         -1.8793   -4.8006    0.3176 H         1 <0>         0.4196
     27 H6         -2.7318   -7.3278    0.5359 H         1 <0>         0.1345
     28 H7         -1.9837   -9.6474    0.6638 H         1 <0>         0.1410
     29 H8          0.4107  -10.2098    0.5901 H         1 <0>         0.1444
     30 H9          2.0835   -8.4004    0.3835 H         1 <0>         0.1447
@<TRIPOS>BOND
     1    1    6 ar
     2    1    2 ar
     3    1   22 1
     4    2    3 ar
     5    2   23 1
     6    3    4 ar
     7    3   24 1
     8    4    5 ar
     9    4   21 1
    10    5    6 ar
    11    5    7 1
    12    6   25 1
    13    7    8 2
    14    7    9 1
    15    9   10 2
    16    9   19 1
    17   10   18 1
    18   10   11 1
    19   11   12 1
    20   11   26 1
    21   12   17 ar
    22   12   13 ar
    23   13   14 ar
    24   13   27 1
    25   14   15 ar
    26   14   28 1
    27   15   16 ar
    28   15   29 1
    29   16   17 ar
    30   16   30 1
    31   17   18 1
    32   19   20 3
