@<TRIPOS>MOLECULE
ZINC40313949
   32    33     0     0     0
SMALL
USER_CHARGES

@<TRIPOS>ATOM
      1 C1         -0.0167    1.3782    0.0096 C.ar      1 <0>        -0.0723
      2 C2          1.1703    2.0860    0.0021 C.ar      1 <0>        -0.1553
      3 C3          2.3786    1.4101   -0.0131 C.ar      1 <0>         0.1074
      4 C4          2.3962    0.0256   -0.0207 C.ar      1 <0>        -0.1543
      5 C5          1.2079   -0.6800   -0.0132 C.ar      1 <0>        -0.0702
      6 C6          0.0021   -0.0041    0.0020 C.ar      1 <0>        -0.1165
      7 C7         -1.2930   -0.7747    0.0103 C.3       1 <0>         0.1497
      8 N1         -1.7258   -1.0170   -1.3682 N.pl3     1 <0>        -1.1069
      9 S1         -2.8986   -2.1432   -1.6819 S.o2      1 <0>         2.6946
     10 O1         -3.1131   -2.1257   -3.0865 O.2       1 <0>        -0.9500
     11 O2         -2.5262   -3.3229   -0.9828 O.2       1 <0>        -0.9336
     12 C8         -4.3878   -1.5658   -0.9379 C.ar      1 <0>        -0.6301
     13 C9         -5.4714   -1.2350   -1.7294 C.ar      1 <0>        -0.0652
     14 C10        -6.6445   -0.7806   -1.1436 C.ar      1 <0>         0.1818
     15 C11        -6.7262   -0.6593    0.2398 C.ar      1 <0>         0.0838
     16 C12        -5.6389   -0.9917    1.0261 C.ar      1 <0>        -0.1100
     17 C13        -4.4725   -1.4496    0.4379 C.ar      1 <0>         0.0106
     18 Cl1        -3.1110   -1.8725    1.4284 Cl        1 <0>        -0.0320
     19 F1         -7.8663   -0.2169    0.8139 F         1 <0>        -0.1250
     20 N2         -7.7427   -0.4448   -1.9428 N.pl3     1 <0>        -0.8635
     21 F2          3.5396    2.1009   -0.0209 F         1 <0>        -0.1371
     22 H1         -0.9592    1.9052    0.0260 H         1 <0>         0.1360
     23 H2          1.1554    3.1659    0.0077 H         1 <0>         0.1384
     24 H3          3.3381   -0.5027   -0.0329 H         1 <0>         0.1392
     25 H4          1.2213   -1.7599   -0.0195 H         1 <0>         0.1379
     26 H5         -1.1453   -1.7280    0.5176 H         1 <0>         0.0950
     27 H6         -2.0553   -0.1984    0.5345 H         1 <0>         0.0853
     28 H7         -1.3255   -0.5177   -2.0971 H         1 <0>         0.4236
     29 H8         -5.4051   -1.3298   -2.8032 H         1 <0>         0.1625
     30 H9         -5.7010   -0.8980    2.1003 H         1 <0>         0.1579
     31 H10        -7.6845   -0.5294   -2.9074 H         1 <0>         0.4103
     32 H11        -8.5622   -0.1273   -1.5323 H         1 <0>         0.4082
@<TRIPOS>BOND
     1    1    6 ar
     2    1    2 ar
     3    1   22 1
     4    2    3 ar
     5    2   23 1
     6    3    4 ar
     7    3   21 1
     8    4    5 ar
     9    4   24 1
    10    5    6 ar
    11    5   25 1
    12    6    7 1
    13    7    8 1
    14    7   26 1
    15    7   27 1
    16    8    9 1
    17    8   28 1
    18    9   10 2
    19    9   11 2
    20    9   12 1
    21   12   17 ar
    22   12   13 ar
    23   13   14 ar
    24   13   29 1
    25   14   15 ar
    26   14   20 1
    27   15   16 ar
    28   15   19 1
    29   16   17 ar
    30   16   30 1
    31   17   18 1
    32   20   31 1
    33   20   32 1
