@<TRIPOS>MOLECULE
ZINC42117873
   40    42     0     0     0
SMALL
USER_CHARGES

@<TRIPOS>ATOM
      1 C1         -0.0184    1.5028    0.0103 C.3       1 <0>        -0.1153
      2 C2          0.0021   -0.0041    0.0020 C.ar      1 <0>        -0.0991
      3 C3          0.0057   -0.6859   -1.1975 C.ar      1 <0>        -0.0527
      4 C4          0.0239   -2.0690   -1.2156 C.ar      1 <0>        -0.1114
      5 C5          0.0391   -2.7731   -0.0229 C.ar      1 <0>        -0.0201
      6 C6          0.0360   -2.0946    1.1746 C.ar      1 <0>        -0.1204
      7 C7          0.0230   -0.7056    1.2056 C.ar      1 <0>         0.1591
      8 N1          0.0294   -0.2525    2.5257 N.am      1 <0>        -0.6560
      9 C8          0.0515   -1.2636    3.4103 C.2       1 <0>         0.5000
     10 O1          0.0610   -1.1632    4.6190 O.2       1 <0>        -0.4878
     11 C9          0.0491   -2.5519    2.6150 C.3       1 <0>         0.1008
     12 H1          0.9537   -3.1220    2.8265 H         1 <0>         0.1311
     13 N2         -1.1464   -3.3523    2.9118 N.3       1 <0>        -0.6470
     14 C10        -0.9015   -4.2684    4.0337 C.3       1 <0>         0.0831
     15 H2         -0.2364   -3.7921    4.7540 H         1 <0>         0.0692
     16 C11        -2.2301   -4.6110    4.7134 C.3       1 <0>        -0.1224
     17 C12        -1.9732   -5.6124    5.8429 C.3       1 <0>        -0.1146
     18 C13        -1.2954   -6.8586    5.2688 C.3       1 <0>         0.0533
     19 N3         -0.0289   -6.4782    4.6303 N.3       1 <0>        -0.5454
     20 C14        -0.2538   -5.5532    3.5122 C.3       1 <0>         0.0678
     21 C15         0.7159   -7.6653    4.1897 C.3       1 <0>         0.0263
     22 Br1         0.0275   -2.9958   -2.8640 Br        1 <0>        -0.0398
     23 H3          1.0042    1.8801    0.0026 H         1 <0>         0.0761
     24 H4         -0.5455    1.8639   -0.8728 H         1 <0>         0.0770
     25 H5         -0.5286    1.8543    0.9071 H         1 <0>         0.0639
     26 H6         -0.0062   -0.1367   -2.1274 H         1 <0>         0.1420
     27 H7          0.0530   -3.8530   -0.0325 H         1 <0>         0.1413
     28 H8          0.0193    0.6846    2.7757 H         1 <0>         0.4143
     29 H9         -2.6734   -3.7040    5.1245 H         1 <0>         0.0655
     30 H10        -2.9097   -5.0513    3.9837 H         1 <0>         0.0705
     31 H11        -1.3248   -5.1578    6.5918 H         1 <0>         0.0732
     32 H12        -2.9207   -5.8929    6.3030 H         1 <0>         0.0725
     33 H13        -1.0982   -7.5677    6.0728 H         1 <0>         0.0767
     34 H14        -1.9503   -7.3204    4.5299 H         1 <0>         0.0352
     35 H15        -0.9130   -6.0214    2.7812 H         1 <0>         0.0439
     36 H16         0.6993   -5.3139    3.0406 H         1 <0>         0.0724
     37 H17         0.1467   -8.1862    3.4197 H         1 <0>         0.0265
     38 H18         1.6802   -7.3593    3.7841 H         1 <0>         0.0689
     39 H19         0.8733   -8.3311    5.0382 H         1 <0>         0.0698
     40 H20        -1.9419   -2.7595    3.0960 H         1 <0>         0.3516
@<TRIPOS>BOND
     1    1    2 1
     2    1   23 1
     3    1   24 1
     4    1   25 1
     5    2    7 ar
     6    2    3 ar
     7    3    4 ar
     8    3   26 1
     9    4    5 ar
    10    4   22 1
    11    5    6 ar
    12    5   27 1
    13    6   11 1
    14    6    7 ar
    15    7    8 1
    16    8    9 am
    17    8   28 1
    18    9   10 2
    19    9   11 1
    20   11   12 1
    21   11   13 1
    22   13   14 1
    23   13   40 1
    24   14   15 1
    25   14   20 1
    26   14   16 1
    27   16   17 1
    28   16   29 1
    29   16   30 1
    30   17   18 1
    31   17   31 1
    32   17   32 1
    33   18   19 1
    34   18   33 1
    35   18   34 1
    36   19   20 1
    37   19   21 1
    38   20   35 1
    39   20   36 1
    40   21   37 1
    41   21   38 1
    42   21   39 1
