@<TRIPOS>MOLECULE
ZINC66411298
   50    52     0     0     0
SMALL
USER_CHARGES

@<TRIPOS>ATOM
      1 C1         -0.2477    1.4730    0.0413 C.3       1 <0>        -0.1263
      2 C2         -0.1826   -0.0325    0.0212 C.ar      1 <0>        -0.0554
      3 C3          0.9869   -0.6774    0.3797 C.ar      1 <0>        -0.1037
      4 C4          1.0498   -2.0570    0.3623 C.ar      1 <0>        -0.1004
      5 C5         -0.0632   -2.7965   -0.0153 C.ar      1 <0>         0.0781
      6 C6         -1.2364   -2.1460   -0.3742 C.ar      1 <0>        -0.0962
      7 C7         -1.2943   -0.7663   -0.3502 C.ar      1 <0>        -0.1052
      8 N1         -0.0026   -4.1957   -0.0344 N.am      1 <0>        -0.4641
      9 C8          0.1012   -4.9040    1.1588 C.2       1 <0>         0.2892
     10 N2          0.2647   -6.1979    1.3297 N.2       1 <0>        -0.5268
     11 C9          0.3457   -6.7217    2.5385 C.2       1 <0>         0.0219
     12 C10         0.2527   -5.8677    3.5876 C.2       1 <0>        -0.2274
     13 S1          0.0552   -4.3122    2.7336 S.3       1 <0>         0.2036
     14 C11         0.5325   -8.2029    2.7436 C.3       1 <0>         0.0791
     15 N3         -0.7752   -8.8710    2.7080 N.4       1 <0>        -0.5053
     16 C12        -0.5931  -10.3149    2.9079 C.3       1 <0>         0.0768
     17 H1          0.1109  -10.6980    2.1692 H         1 <0>         0.1511
     18 C13        -0.0464  -10.5701    4.3139 C.3       1 <0>        -0.1804
     19 C14        -1.9181  -11.0151    2.7494 C.ar      1 <0>        -0.1279
     20 C15        -3.0958  -10.3009    2.8672 C.ar      1 <0>        -0.1203
     21 C16        -4.3112  -10.9430    2.7218 C.ar      1 <0>        -0.0944
     22 C17        -4.3498  -12.2998    2.4586 C.ar      1 <0>        -0.0824
     23 C18        -3.1731  -13.0148    2.3406 C.ar      1 <0>        -0.0920
     24 C19        -1.9560  -12.3715    2.4804 C.ar      1 <0>        -0.0148
     25 Cl1        -0.4773  -13.2677    2.3259 Cl        1 <0>        -0.0427
     26 C20        -0.0447   -4.8561   -1.2085 C.2       1 <0>         0.5202
     27 O1         -0.0719   -6.0685   -1.2217 O.2       1 <0>        -0.4748
     28 C21        -0.0580   -4.0879   -2.5050 C.3       1 <0>        -0.1741
     29 H2         -0.5732    1.8094    1.0257 H         1 <0>         0.0807
     30 H3          0.7392    1.8822   -0.1747 H         1 <0>         0.0749
     31 H4         -0.9563    1.8161   -0.7125 H         1 <0>         0.0750
     32 H5          1.8522   -0.1016    0.6732 H         1 <0>         0.1387
     33 H6          1.9637   -2.5600    0.6416 H         1 <0>         0.1300
     34 H7         -2.1037   -2.7184   -0.6683 H         1 <0>         0.1325
     35 H8         -2.2077   -0.2599   -0.6253 H         1 <0>         0.1393
     36 H9          0.2916   -6.0716    4.6474 H         1 <0>         0.2100
     37 H10         1.1662   -8.6023    1.9517 H         1 <0>         0.1478
     38 H11         1.0044   -8.3792    3.7102 H         1 <0>         0.1512
     39 H12        -1.3619   -8.5014    3.4410 H         1 <0>         0.4235
     40 H13         0.0888  -11.6415    4.4622 H         1 <0>         0.1095
     41 H14         0.9120  -10.0637    4.4285 H         1 <0>         0.0903
     42 H15        -0.7504  -10.1870    5.0526 H         1 <0>         0.0869
     43 H16        -3.0663   -9.2412    3.0731 H         1 <0>         0.1243
     44 H17        -5.2311  -10.3847    2.8142 H         1 <0>         0.1429
     45 H18        -5.2998  -12.8010    2.3454 H         1 <0>         0.1469
     46 H19        -3.2034  -14.0746    2.1353 H         1 <0>         0.1490
     47 H20        -0.0690   -3.0187   -2.2937 H         1 <0>         0.0893
     48 H21         0.8327   -4.3349   -3.0828 H         1 <0>         0.1086
     49 H22        -0.9471   -4.3546   -3.0763 H         1 <0>         0.1081
     50 H23        -1.2120   -8.7078    1.8132 H         1 <0>         0.4353
@<TRIPOS>BOND
     1    1    2 1
     2    1   29 1
     3    1   30 1
     4    1   31 1
     5    2    7 ar
     6    2    3 ar
     7    3    4 ar
     8    3   32 1
     9    4    5 ar
    10    4   33 1
    11    5    6 ar
    12    5    8 1
    13    6    7 ar
    14    6   34 1
    15    7   35 1
    16    8    9 1
    17    8   26 am
    18    9   13 1
    19    9   10 2
    20   10   11 1
    21   11   12 2
    22   11   14 1
    23   12   13 1
    24   12   36 1
    25   14   15 1
    26   14   37 1
    27   14   38 1
    28   15   16 1
    29   15   39 1
    30   15   50 1
    31   16   17 1
    32   16   18 1
    33   16   19 1
    34   18   40 1
    35   18   41 1
    36   18   42 1
    37   19   24 ar
    38   19   20 ar
    39   20   21 ar
    40   20   43 1
    41   21   22 ar
    42   21   44 1
    43   22   23 ar
    44   22   45 1
    45   23   24 ar
    46   23   46 1
    47   24   25 1
    48   26   27 2
    49   26   28 1
    50   28   47 1
    51   28   48 1
    52   28   49 1
