@<TRIPOS>MOLECULE
ZINC35843683
   65    69     0     0     0
SMALL
USER_CHARGES

@<TRIPOS>ATOM
      1 C1          3.6139    1.5989    2.1696 C.ar      1 <0>        -0.1254
      2 C2          3.3041    1.9432    3.4724 C.ar      1 <0>        -0.0560
      3 C3          2.9987    0.9596    4.3936 C.ar      1 <0>        -0.1500
      4 C4          3.0029   -0.3714    4.0115 C.ar      1 <0>         0.1231
      5 C5          3.3132   -0.7150    2.7068 C.ar      1 <0>        -0.1851
      6 C6          3.6184    0.2707    1.7871 C.ar      1 <0>        -0.0589
      7 C7          3.3187   -2.1630    2.2896 C.3       1 <0>         0.0426
      8 N1          1.9405   -2.6058    2.0395 N.4       1 <0>        -0.3438
      9 C8          1.9338   -4.0459    1.7496 C.3       1 <0>        -0.0410
     10 C9          2.3517   -4.8081    2.9807 C.2       1 <0>         0.4991
     11 O1          2.5392   -4.2190    4.0241 O.2       1 <0>        -0.5076
     12 N2          2.5170   -6.1444    2.9221 N.am      1 <0>        -0.5826
     13 C10         3.0387   -6.8695    4.0833 C.3       1 <0>         0.1159
     14 C11         1.8755   -7.3096    4.9744 C.3       1 <0>        -0.0509
     15 C12         2.4120   -8.0555    6.1689 C.2       1 <0>        -0.1836
     16 C13         2.5454   -9.3861    6.2855 C.2       1 <0>         0.0649
     17 N3          3.0669   -9.6972    7.5117 N.pl3     1 <0>        -0.5927
     18 H1          3.2535  -10.5956    7.8263 H         1 <0>         0.4191
     19 C14         3.2876   -8.5449    8.2325 C.ar      1 <0>         0.0951
     20 C15         2.8929   -7.4656    7.4206 C.ar      1 <0>        -0.1002
     21 C16         3.0104   -6.1580    7.8948 C.ar      1 <0>        -0.0731
     22 C17         3.5122   -5.9324    9.1457 C.ar      1 <0>        -0.1421
     23 C18         3.9067   -6.9933    9.9489 C.ar      1 <0>        -0.0958
     24 C19         3.7908   -8.2925    9.5043 C.ar      1 <0>        -0.1280
     25 C20         2.1752   -6.8718    1.6973 C.3       1 <0>         0.1373
     26 C21         3.4118   -7.0438    0.8534 C.ar      1 <0>        -0.1054
     27 C22         3.6798   -6.1527   -0.1693 C.ar      1 <0>        -0.1067
     28 C23         4.8133   -6.3095   -0.9442 C.ar      1 <0>        -0.0932
     29 C24         5.6809   -7.3583   -0.6966 C.ar      1 <0>        -0.0238
     30 C25         5.4128   -8.2502    0.3277 C.ar      1 <0>        -0.0260
     31 C26         4.2804   -8.0887    1.1058 C.ar      1 <0>        -0.0784
     32 Cl1         6.5002   -9.5671    0.6394 Cl        1 <0>        -0.0289
     33 Cl2         7.1046   -7.5561   -1.6701 Cl        1 <0>        -0.0296
     34 C27         1.3914   -1.8726    0.8911 C.3       1 <0>        -0.0846
     35 C28         0.3628   -0.7770    1.1787 C.3       1 <0>        -0.1444
     36 C29        -0.0826   -2.0980    0.5483 C.3       1 <0>        -0.1559
     37 F1          2.7049   -1.3340    4.9114 F         1 <0>        -0.1222
     38 H2          3.8481    2.3687    1.4492 H         1 <0>         0.1423
     39 H3          3.3013    2.9814    3.7702 H         1 <0>         0.1451
     40 H4          2.7571    1.2288    5.4112 H         1 <0>         0.1477
     41 H5          3.8601    0.0029    0.7691 H         1 <0>         0.1390
     42 H6          3.9076   -2.2767    1.3795 H         1 <0>         0.1373
     43 H7          3.7563   -2.7682    3.0835 H         1 <0>         0.1493
     44 H8          0.9300   -4.3527    1.4556 H         1 <0>         0.1604
     45 H9          2.6304   -4.2564    0.9381 H         1 <0>         0.1568
     46 H10         3.5902   -7.7470    3.7460 H         1 <0>         0.0883
     47 H11         3.7039   -6.2178    4.6498 H         1 <0>         0.0948
     48 H12         1.3239   -6.4321    5.3118 H         1 <0>         0.0755
     49 H13         1.2102   -7.9613    4.4080 H         1 <0>         0.0724
     50 H14         2.2800  -10.1048    5.5243 H         1 <0>         0.1692
     51 H15         2.7061   -5.3274    7.2751 H         1 <0>         0.1195
     52 H16         3.6029   -4.9205    9.5121 H         1 <0>         0.1223
     53 H17         4.3021   -6.7991   10.9350 H         1 <0>         0.1274
     54 H18         4.1016   -9.1112   10.1364 H         1 <0>         0.1219
     55 H19         1.7732   -7.8512    1.9566 H         1 <0>         0.1130
     56 H20         1.4283   -6.3093    1.1371 H         1 <0>         0.0971
     57 H21         3.0027   -5.3339   -0.3629 H         1 <0>         0.1314
     58 H22         5.0216   -5.6135   -1.7434 H         1 <0>         0.1481
     59 H23         4.0727   -8.7818    1.9076 H         1 <0>         0.1464
     60 H24         2.0816   -1.7105    0.0632 H         1 <0>         0.1783
     61 H25         0.0936   -0.6003    2.2201 H         1 <0>         0.1175
     62 H26         0.3763    0.1062    0.5401 H         1 <0>         0.1358
     63 H27        -0.3621   -2.0839   -0.5052 H         1 <0>         0.1374
     64 H28        -0.6448   -2.7904    1.1748 H         1 <0>         0.1180
     65 H29         1.3756   -2.4244    2.8557 H         1 <0>         0.4270
@<TRIPOS>BOND
     1    1    6 ar
     2    1    2 ar
     3    1   38 1
     4    2    3 ar
     5    2   39 1
     6    3    4 ar
     7    3   40 1
     8    4    5 ar
     9    4   37 1
    10    5    6 ar
    11    5    7 1
    12    6   41 1
    13    7    8 1
    14    7   42 1
    15    7   43 1
    16    8    9 1
    17    8   34 1
    18    8   65 1
    19    9   10 1
    20    9   44 1
    21    9   45 1
    22   10   11 2
    23   10   12 am
    24   12   13 1
    25   12   25 1
    26   13   14 1
    27   13   46 1
    28   13   47 1
    29   14   15 1
    30   14   48 1
    31   14   49 1
    32   15   20 1
    33   15   16 2
    34   16   17 1
    35   16   50 1
    36   17   18 1
    37   17   19 1
    38   19   24 ar
    39   19   20 ar
    40   20   21 ar
    41   21   22 ar
    42   21   51 1
    43   22   23 ar
    44   22   52 1
    45   23   24 ar
    46   23   53 1
    47   24   54 1
    48   25   26 1
    49   25   55 1
    50   25   56 1
    51   26   31 ar
    52   26   27 ar
    53   27   28 ar
    54   27   57 1
    55   28   29 ar
    56   28   58 1
    57   29   30 ar
    58   29   33 1
    59   30   31 ar
    60   30   32 1
    61   31   59 1
    62   34   36 1
    63   34   35 1
    64   34   60 1
    65   35   36 1
    66   35   61 1
    67   35   62 1
    68   36   63 1
    69   36   64 1
