@<TRIPOS>MOLECULE
ZINC62779555
   22    23     0     0     0
SMALL
USER_CHARGES

@<TRIPOS>ATOM
      1 C1         -0.0167    1.3792    0.0096 C.ar      1 <0>        -0.1004
      2 C2          1.1708    2.0869    0.0021 C.ar      1 <0>        -0.0831
      3 C3          2.3773    1.4131   -0.0135 C.ar      1 <0>        -0.0969
      4 C4          2.3974    0.0294   -0.0212 C.ar      1 <0>        -0.0055
      5 C5          1.2096   -0.6792   -0.0132 C.ar      1 <0>        -0.0992
      6 C6          0.0021   -0.0041    0.0020 C.ar      1 <0>        -0.0149
      7 Cl1        -1.4893   -0.8926    0.0121 Cl        1 <0>        -0.0463
      8 Cl2         3.9130   -0.8168   -0.0414 Cl        1 <0>        -0.0397
      9 C7          3.6714    2.1853   -0.0227 C.3       1 <0>         0.0999
     10 H1          4.4087    1.6516   -0.6224 H         1 <0>         0.1418
     11 C8          4.1805    2.3292    1.3883 C.2       1 <0>         0.0734
     12 C9          5.3672    1.8795    1.8581 C.2       1 <0>        -0.2351
     13 C10         5.4496    2.2171    3.2129 C.2       1 <0>         0.0511
     14 N1          4.3518    2.8470    3.5446 N.2       1 <0>        -0.2740
     15 N2          3.5373    2.9349    2.4084 N.pl3     1 <0>        -0.4601
     16 H2          2.6641    3.3550    2.3633 H         1 <0>         0.4379
     17 Cl3         3.3909    3.8199   -0.7301 Cl        1 <0>        -0.1395
     18 H3         -0.9592    1.9062    0.0260 H         1 <0>         0.1474
     19 H4          1.1557    3.1667    0.0080 H         1 <0>         0.1498
     20 H5          1.2248   -1.7590   -0.0191 H         1 <0>         0.1514
     21 H6          6.1178    1.3525    1.2877 H         1 <0>         0.1526
     22 H7          6.2763    1.9956    3.8716 H         1 <0>         0.1897
@<TRIPOS>BOND
     1    1    6 ar
     2    1    2 ar
     3    1   18 1
     4    2    3 ar
     5    2   19 1
     6    3    4 ar
     7    3    9 1
     8    4    5 ar
     9    4    8 1
    10    5    6 ar
    11    5   20 1
    12    6    7 1
    13    9   10 1
    14    9   11 1
    15    9   17 1
    16   11   15 1
    17   11   12 2
    18   12   13 1
    19   12   21 1
    20   13   14 2
    21   13   22 1
    22   14   15 1
    23   15   16 1
