@<TRIPOS>MOLECULE
ZINC22074231
   49    51     0     0     0
SMALL
USER_CHARGES
N-[[3-bromo-4-[(4-chlorophenyl)methoxy]-5-methoxy-phenyl]methyl]cyclopentanamine
@<TRIPOS>ATOM
      1 C1          1.1720    5.5093   -3.5562 C.3       1 <0>         0.0162
      2 O1          1.1521    6.2810   -2.3537 O.3       1 <0>        -0.2917
      3 C2          1.1907    5.5958   -1.1796 C.ar      1 <0>         0.1277
      4 C3          1.2521    4.2113   -1.1854 C.ar      1 <0>        -0.1667
      5 C4          1.2856    3.5156    0.0087 C.ar      1 <0>        -0.1221
      6 C5          1.2693    4.1982    1.2108 C.ar      1 <0>        -0.0922
      7 C6          1.2137    5.5802    1.2239 C.ar      1 <0>        -0.0811
      8 C7          1.1742    6.2834    0.0296 C.ar      1 <0>         0.1273
      9 O2          1.1191    7.6423    0.0403 O.3       1 <0>        -0.3069
     10 C8          2.3649    8.3423    0.0338 C.3       1 <0>         0.1096
     11 C9          2.1071    9.8270    0.0473 C.ar      1 <0>        -0.0966
     12 C10         1.9832   10.5176   -1.1438 C.ar      1 <0>        -0.0784
     13 C11         1.7411   11.8783   -1.1320 C.ar      1 <0>        -0.1133
     14 C12         1.6340   12.5512    0.0721 C.ar      1 <0>        -0.0211
     15 C13         1.7637   11.8604    1.2638 C.ar      1 <0>        -0.1132
     16 C14         2.0002   10.4987    1.2508 C.ar      1 <0>        -0.0788
     17 Cl1         1.3364   14.2614    0.0877 Cl        1 <0>        -0.0588
     18 Br1         1.1910    6.5103    2.8702 Br        1 <0>         0.0027
     19 C15         1.3463    2.0098   -0.0000 C.3       1 <0>         0.0521
     20 N1         -0.0178    1.4648    0.0101 N.4       1 <0>        -0.5419
     21 C16         0.0021   -0.0041    0.0020 C.3       1 <0>         0.0262
     22 C17         0.0502   -0.5239   -1.4496 C.3       1 <0>        -0.1411
     23 C18        -0.8397   -1.7915   -1.4288 C.3       1 <0>        -0.1260
     24 C19        -1.9898   -1.3861   -0.4738 C.3       1 <0>        -0.1280
     25 C20        -1.2950   -0.5522    0.6225 C.3       1 <0>        -0.1374
     26 H1          1.1367    6.1832   -4.4249 H         1 <0>         0.1157
     27 H2          0.2999    4.8392   -3.5763 H         1 <0>         0.0603
     28 H3          2.0947    4.9116   -3.5930 H         1 <0>         0.0623
     29 H4          1.2694    3.6755   -2.1230 H         1 <0>         0.1471
     30 H5          1.3004    3.6513    2.1415 H         1 <0>         0.1478
     31 H6          2.9470    8.0631    0.9245 H         1 <0>         0.0710
     32 H7          2.9301    8.0765   -0.8717 H         1 <0>         0.0717
     33 H8          2.0712    9.9930   -2.0837 H         1 <0>         0.1342
     34 H9          1.6399   12.4170   -2.0626 H         1 <0>         0.1387
     35 H10         1.6798   12.3851    2.2041 H         1 <0>         0.1388
     36 H11         2.1011    9.9594    2.1810 H         1 <0>         0.1331
     37 H12         1.8706    1.6692   -0.9051 H         1 <0>         0.1373
     38 H13         1.8878    1.6595    0.8911 H         1 <0>         0.1402
     39 H14        -0.5420    1.8055    0.9152 H         1 <0>         0.4479
     40 H15         0.8942   -0.2860    0.5806 H         1 <0>         0.1351
     41 H16        -0.3446    0.2466   -2.1282 H         1 <0>         0.0849
     42 H17         1.0906   -0.7544   -1.7223 H         1 <0>         0.0946
     43 H18        -1.1909   -2.0097   -2.4481 H         1 <0>         0.0875
     44 H19        -0.2551   -2.6438   -1.0521 H         1 <0>         0.0834
     45 H20        -2.7368   -0.7988   -1.0280 H         1 <0>         0.0795
     46 H21        -2.4639   -2.2910   -0.0659 H         1 <0>         0.0883
     47 H22        -1.0491   -1.1769    1.4938 H         1 <0>         0.1036
     48 H23        -1.9321    0.2862    0.9405 H         1 <0>         0.0866
     49 H24        -0.5593    1.8151   -0.8810 H         1 <0>         0.4437
@<TRIPOS>BOND
     1    1    2 1
     2    1   26 1
     3    1   27 1
     4    1   28 1
     5    2    3 1
     6    3    8 ar
     7    3    4 ar
     8    4    5 ar
     9    4   29 1
    10    5    6 ar
    11    5   19 1
    12    6    7 ar
    13    6   30 1
    14    7    8 ar
    15    7   18 1
    16    8    9 1
    17    9   10 1
    18   10   11 1
    19   10   31 1
    20   10   32 1
    21   11   16 ar
    22   11   12 ar
    23   12   13 ar
    24   12   33 1
    25   13   14 ar
    26   13   34 1
    27   14   15 ar
    28   14   17 1
    29   15   16 ar
    30   15   35 1
    31   16   36 1
    32   19   20 1
    33   19   37 1
    34   19   38 1
    35   20   21 1
    36   20   39 1
    37   20   49 1
    38   21   25 1
    39   21   22 1
    40   21   40 1
    41   22   23 1
    42   22   41 1
    43   22   42 1
    44   23   24 1
    45   23   43 1
    46   23   44 1
    47   24   25 1
    48   24   45 1
    49   24   46 1
    50   25   47 1
    51   25   48 1
