@<TRIPOS>MOLECULE
ZINC47321387
   28    28     0     0     0
SMALL
USER_CHARGES

@<TRIPOS>ATOM
      1 C1          1.0854   -0.4600    0.7524 C.ar      1 <0>        -0.0917
      2 C2          2.2742    0.2436    0.7392 C.ar      1 <0>        -0.1051
      3 C3          2.3810    1.4101   -0.0064 C.ar      1 <0>         0.1711
      4 C4          1.2917    1.8661   -0.7370 C.ar      1 <0>        -0.1205
      5 C5          0.1052    1.1581   -0.7200 C.ar      1 <0>        -0.0709
      6 C6          0.0023   -0.0041    0.0244 C.ar      1 <0>        -0.1061
      7 Br1        -1.3793    1.7780   -1.7138 Br        1 <0>        -0.0441
      8 N1          3.5840    2.1250   -0.0212 N.am      1 <0>        -0.6834
      9 C7          4.7585    1.4696    0.0659 C.2       1 <0>         0.7084
     10 O1          4.7782    0.2539    0.0598 O.2       1 <0>        -0.5634
     11 N2          5.9111    2.1619    0.1597 N.am      1 <0>        -0.7381
     12 C8          7.1877    1.4495    0.2543 C.3       1 <0>         0.1566
     13 C9          8.3309    2.4620    0.3494 C.3       1 <0>        -0.1197
     14 S1          9.9116    1.5800    0.4665 S.3       1 <0>        -0.1349
     15 C10        11.1466    2.9046    0.5707 C.3       1 <0>         0.4662
     16 F1         10.8953    3.6885    1.7019 F         1 <0>        -0.1670
     17 F2         12.4248    2.3440    0.6664 F         1 <0>        -0.1444
     18 F3         11.0721    3.7028   -0.5758 F         1 <0>        -0.1669
     19 H1          1.0035   -1.3697    1.3287 H         1 <0>         0.1375
     20 H2          3.1197   -0.1132    1.3086 H         1 <0>         0.1428
     21 H3          1.3717    2.7732   -1.3176 H         1 <0>         0.1357
     22 H4         -0.9259   -0.5560    0.0364 H         1 <0>         0.1353
     23 H5          3.5725    3.0922   -0.0940 H         1 <0>         0.4100
     24 H6          5.8953    3.1317    0.1646 H         1 <0>         0.4017
     25 H7          7.1866    0.8183    1.1429 H         1 <0>         0.0869
     26 H8          7.3243    0.8294   -0.6317 H         1 <0>         0.0867
     27 H9          8.3320    3.0932   -0.5392 H         1 <0>         0.1086
     28 H10         8.1943    3.0821    1.2353 H         1 <0>         0.1088
@<TRIPOS>BOND
     1    1    6 ar
     2    1    2 ar
     3    1   19 1
     4    2    3 ar
     5    2   20 1
     6    3    4 ar
     7    3    8 1
     8    4    5 ar
     9    4   21 1
    10    5    6 ar
    11    5    7 1
    12    6   22 1
    13    8    9 am
    14    8   23 1
    15    9   10 2
    16    9   11 am
    17   11   12 1
    18   11   24 1
    19   12   13 1
    20   12   25 1
    21   12   26 1
    22   13   14 1
    23   13   27 1
    24   13   28 1
    25   14   15 1
    26   15   16 1
    27   15   17 1
    28   15   18 1
