@<TRIPOS>MOLECULE
ZINC20875142
   55    57     0     0     0
SMALL
USER_CHARGES
N-[[5-chloro-2-(p-tolylmethoxy)phenyl]methyl]-N'-(4-nitrophenyl)ethane-1,2-diamine
@<TRIPOS>ATOM
      1 C1         -7.6108   -2.6425    0.0236 C.3       1 <0>        -0.1283
      2 C2         -6.2255   -2.0492    0.0203 C.ar      1 <0>        -0.0605
      3 C3         -5.5961   -1.7698   -1.1783 C.ar      1 <0>        -0.1215
      4 C4         -4.3254   -1.2256   -1.1814 C.ar      1 <0>        -0.0876
      5 C5         -3.6844   -0.9600    0.0142 C.ar      1 <0>        -0.1190
      6 C6         -4.3119   -1.2438    1.2128 C.ar      1 <0>        -0.0932
      7 C7         -5.5843   -1.7840    1.2159 C.ar      1 <0>        -0.1245
      8 C8         -2.2992   -0.3666    0.0109 C.3       1 <0>         0.1015
      9 O1         -2.3917    1.0593    0.0191 O.3       1 <0>        -0.3175
     10 C9         -1.2232    1.7536    0.0174 C.ar      1 <0>         0.1601
     11 C10        -0.0126    1.0758    0.0080 C.ar      1 <0>        -0.1914
     12 C11         1.1738    1.7831    0.0004 C.ar      1 <0>        -0.0327
     13 C12         1.1556    3.1668    0.0076 C.ar      1 <0>        -0.0732
     14 C13        -0.0505    3.8444    0.0227 C.ar      1 <0>        -0.0439
     15 C14        -1.2393    3.1404    0.0303 C.ar      1 <0>        -0.1866
     16 C15        -2.5529    3.8790    0.0462 C.3       1 <0>         0.0652
     17 N1         -3.0848    3.9026    1.4153 N.4       1 <0>        -0.5351
     18 C16        -4.3677    4.6161    1.4695 C.3       1 <0>        -0.0159
     19 C17        -4.8890    4.6196    2.9079 C.3       1 <0>         0.0990
     20 N2         -6.1684    5.3313    2.9619 N.pl3     1 <0>        -0.7469
     21 C18        -6.8420    5.4657    4.1781 C.ar      1 <0>         0.2597
     22 C19        -6.3029    4.9203    5.3364 C.ar      1 <0>        -0.1995
     23 C20        -6.9687    5.0601    6.5382 C.ar      1 <0>        -0.0036
     24 C21        -8.1763    5.7321    6.5874 C.ar      1 <0>        -0.0927
     25 C22        -8.7185    6.2713    5.4353 C.ar      1 <0>        -0.0034
     26 C23        -8.0552    6.1402    4.2311 C.ar      1 <0>        -0.1849
     27 N3         -8.8898    5.8750    7.8763 N.pl3     1 <0>         0.0310
     28 O2         -9.9533    6.4670    7.9212 O.2       1 <0>        -0.1606
     29 O3         -8.4134    5.4006    8.8919 O.3       1 <0>        -0.1637
     30 Cl1         2.6480    4.0535   -0.0019 Cl        1 <0>        -0.0399
     31 H1         -7.9529   -2.7808   -1.0127 H         1 <0>         0.0712
     32 H2         -8.2989   -1.9642    0.5494 H         1 <0>         0.0752
     33 H3         -7.5917   -3.6154    0.5364 H         1 <0>         0.0780
     34 H4         -6.0971   -1.9770   -2.1124 H         1 <0>         0.1295
     35 H5         -3.8336   -1.0076   -2.1178 H         1 <0>         0.1255
     36 H6         -3.8093   -1.0404    2.1469 H         1 <0>         0.1233
     37 H7         -6.0761   -2.0020    2.1524 H         1 <0>         0.1282
     38 H8         -1.7538   -0.7038    0.9047 H         1 <0>         0.0823
     39 H9         -1.7622   -0.6940   -0.8916 H         1 <0>         0.0829
     40 H10         0.0021   -0.0041    0.0020 H         1 <0>         0.1500
     41 H11         2.1163    1.2559   -0.0114 H         1 <0>         0.1498
     42 H12        -0.0627    4.9243    0.0282 H         1 <0>         0.1501
     43 H13        -2.3981    4.9099   -0.3049 H         1 <0>         0.1384
     44 H14        -3.2681    3.3695   -0.6163 H         1 <0>         0.1407
     45 H15        -3.2395    2.8717    1.7664 H         1 <0>         0.4537
     46 H16        -4.2257    5.6522    1.1285 H         1 <0>         0.1377
     47 H17        -5.0956    4.1118    0.8169 H         1 <0>         0.1371
     48 H18        -5.0311    3.5835    3.2489 H         1 <0>         0.0838
     49 H19        -4.1611    5.1238    3.5605 H         1 <0>         0.0846
     50 H20        -6.5985    5.7598    2.0446 H         1 <0>         0.4366
     51 H21        -5.3621    4.3915    5.2979 H         1 <0>         0.1393
     52 H22        -6.5479    4.6405    7.4400 H         1 <0>         0.1555
     53 H23        -9.6620    6.7953    5.4771 H         1 <0>         0.1578
     54 H24        -8.4791    6.5618    3.3317 H         1 <0>         0.1475
     55 H25        -2.3696    4.4121    2.0778 H         1 <0>         0.4509
@<TRIPOS>BOND
     1    1    2 1
     2    1   31 1
     3    1   32 1
     4    1   33 1
     5    2    7 ar
     6    2    3 ar
     7    3    4 ar
     8    3   34 1
     9    4    5 ar
    10    4   35 1
    11    5    6 ar
    12    5    8 1
    13    6    7 ar
    14    6   36 1
    15    7   37 1
    16    8    9 1
    17    8   38 1
    18    8   39 1
    19    9   10 1
    20   10   15 ar
    21   10   11 ar
    22   11   12 ar
    23   11   40 1
    24   12   13 ar
    25   12   41 1
    26   13   14 ar
    27   13   30 1
    28   14   15 ar
    29   14   42 1
    30   15   16 1
    31   16   17 1
    32   16   43 1
    33   16   44 1
    34   17   18 1
    35   17   45 1
    36   17   55 1
    37   18   19 1
    38   18   46 1
    39   18   47 1
    40   19   20 1
    41   19   48 1
    42   19   49 1
    43   20   21 1
    44   20   50 1
    45   21   26 ar
    46   21   22 ar
    47   22   23 ar
    48   22   51 1
    49   23   24 ar
    50   23   52 1
    51   24   25 ar
    52   24   27 1
    53   25   26 ar
    54   25   53 1
    55   26   54 1
    56   27   28 2
    57   27   29 1
