@<TRIPOS>MOLECULE
ZINC30937892
   56    59     0     0     0
SMALL
USER_CHARGES
(3R)-1-[(2,4-dichlorophenyl)methyl]-N-(2-phenylsulfanylphenyl)piperidine-3-carboxamide
@<TRIPOS>ATOM
      1 C1         -1.2087    5.5407    5.2771 C.ar      1 <0>        -0.1191
      2 C2         -2.5395    5.6451    4.9151 C.ar      1 <0>        -0.1012
      3 C3         -2.9715    5.1281    3.7099 C.ar      1 <0>        -0.0961
      4 C4         -2.0671    4.5026    2.8599 C.ar      1 <0>        -0.1066
      5 C5         -0.7316    4.3953    3.2291 C.ar      1 <0>        -0.1216
      6 C6         -0.3060    4.9185    4.4340 C.ar      1 <0>        -0.1060
      7 S1         -2.6139    3.8408    1.3212 S.3       1 <0>         0.0012
      8 C7         -1.1672    3.1050    0.6355 C.ar      1 <0>        -0.1716
      9 C8         -1.0132    1.7257    0.6517 C.ar      1 <0>        -0.0428
     10 C9          0.1248    1.1515    0.1180 C.ar      1 <0>        -0.1358
     11 C10         1.1079    1.9465   -0.4426 C.ar      1 <0>        -0.0682
     12 C11         0.9605    3.3208   -0.4683 C.ar      1 <0>        -0.1388
     13 C12        -0.1755    3.9065    0.0694 C.ar      1 <0>         0.1884
     14 N1         -0.3271    5.2992    0.0440 N.am      1 <0>        -0.6695
     15 C13         0.7600    6.0958    0.0564 C.2       1 <0>         0.5278
     16 O1          1.8693    5.6089   -0.0027 O.2       1 <0>        -0.5132
     17 C14         0.5972    7.5914    0.1437 C.3       1 <0>        -0.1306
     18 H1          0.0662    7.8312    1.0768 H         1 <0>         0.1250
     19 C15        -0.2072    8.0893   -1.0603 C.3       1 <0>        -0.1330
     20 C16        -0.3164    9.6152   -0.9955 C.3       1 <0>        -0.1429
     21 C17         1.0884   10.2215   -0.9658 C.3       1 <0>        -0.0124
     22 N2          1.8169    9.7149    0.2042 N.4       1 <0>        -0.3997
     23 C18         1.9755    8.2564    0.1404 C.3       1 <0>         0.0122
     24 C19         3.1192   10.3805    0.3423 C.3       1 <0>         0.0418
     25 C20         2.9106   11.8042    0.7905 C.ar      1 <0>        -0.1454
     26 C21         3.0784   12.8426   -0.1065 C.ar      1 <0>        -0.0627
     27 C22         2.8869   14.1484    0.3036 C.ar      1 <0>        -0.0977
     28 C23         2.5270   14.4171    1.6125 C.ar      1 <0>         0.0015
     29 C24         2.3590   13.3786    2.5104 C.ar      1 <0>        -0.0935
     30 C25         2.5457   12.0712    2.0979 C.ar      1 <0>        -0.0184
     31 Cl1         2.3286   10.7666    3.2224 Cl        1 <0>        -0.0408
     32 Cl2         2.2870   16.0575    2.1276 Cl        1 <0>        -0.0220
     33 H2         -0.8737    5.9457    6.2206 H         1 <0>         0.1261
     34 H3         -3.2417    6.1313    5.5761 H         1 <0>         0.1307
     35 H4         -4.0109    5.2093    3.4282 H         1 <0>         0.1299
     36 H5         -0.0269    3.9060    2.5731 H         1 <0>         0.1200
     37 H6          0.7324    4.8385    4.7201 H         1 <0>         0.1227
     38 H7         -1.7807    1.1016    1.0850 H         1 <0>         0.1402
     39 H8          0.2449    0.0783    0.1348 H         1 <0>         0.1357
     40 H9          1.9934    1.4922   -0.8620 H         1 <0>         0.1351
     41 H10         1.7300    3.9383   -0.9076 H         1 <0>         0.1533
     42 H11        -1.3334    5.7425    0.0139 H         1 <0>         0.4425
     43 H12         0.3028    7.7945   -1.9893 H         1 <0>         0.0938
     44 H13        -1.2135    7.6456   -1.0378 H         1 <0>         0.1020
     45 H14        -0.8573    9.9820   -1.8803 H         1 <0>         0.1226
     46 H15        -0.8622    9.9055   -0.0857 H         1 <0>         0.0923
     47 H16         1.6280    9.9416   -1.8826 H         1 <0>         0.1336
     48 H17         1.0136   11.3172   -0.9044 H         1 <0>         0.1330
     49 H18         2.5508    7.9121    1.0125 H         1 <0>         0.1405
     50 H19         2.5108    7.9863   -0.7818 H         1 <0>         0.1424
     51 H20         3.7266    9.8466    1.0879 H         1 <0>         0.1448
     52 H21         3.6391   10.3736   -0.6270 H         1 <0>         0.1475
     53 H22         3.3589   12.6334   -1.1282 H         1 <0>         0.1548
     54 H23         3.0178   14.9593   -0.3976 H         1 <0>         0.1561
     55 H24         2.0778   13.5878    3.5319 H         1 <0>         0.1587
     56 H25         1.2195    9.9484    1.0979 H         1 <0>         0.4330
@<TRIPOS>BOND
     1    1    6 ar
     2    1    2 ar
     3    1   33 1
     4    2    3 ar
     5    2   34 1
     6    3    4 ar
     7    3   35 1
     8    4    5 ar
     9    4    7 1
    10    5    6 ar
    11    5   36 1
    12    6   37 1
    13    7    8 1
    14    8   13 ar
    15    8    9 ar
    16    9   10 ar
    17    9   38 1
    18   10   11 ar
    19   10   39 1
    20   11   12 ar
    21   11   40 1
    22   12   13 ar
    23   12   41 1
    24   13   14 1
    25   14   15 am
    26   14   42 1
    27   15   16 2
    28   15   17 1
    29   17   18 1
    30   17   23 1
    31   17   19 1
    32   19   20 1
    33   19   43 1
    34   19   44 1
    35   20   21 1
    36   20   45 1
    37   20   46 1
    38   21   22 1
    39   21   47 1
    40   21   48 1
    41   22   23 1
    42   22   24 1
    43   22   56 1
    44   23   49 1
    45   23   50 1
    46   24   25 1
    47   24   51 1
    48   24   52 1
    49   25   30 ar
    50   25   26 ar
    51   26   27 ar
    52   26   53 1
    53   27   28 ar
    54   27   54 1
    55   28   29 ar
    56   28   32 1
    57   29   30 ar
    58   29   55 1
    59   30   31 1
