@<TRIPOS>MOLECULE
ZINC43665777
   33    34     0     0     0
SMALL
USER_CHARGES

@<TRIPOS>ATOM
      1 C1         -0.0187    1.5258    0.0104 C.3       1 <0>        -0.1643
      2 C2          0.0021   -0.0041    0.0020 C.3       1 <0>         0.1714
      3 H1         -1.0205   -0.3814    0.0098 H         1 <0>         0.0915
      4 C3          0.7421   -0.5109    1.2415 C.3       1 <0>        -0.0933
      5 C4          0.0259   -0.0175    2.5003 C.3       1 <0>        -0.1144
      6 C5          0.7659   -0.5243    3.7399 C.3       1 <0>        -0.1187
      7 C6          0.7867   -2.0542    3.7315 C.3       1 <0>        -0.1209
      8 C7          1.5028   -2.5476    2.4727 C.3       1 <0>        -0.1179
      9 C8          0.7628   -2.0407    1.2331 C.3       1 <0>        -0.1115
     10 N1          0.6878   -0.4765   -1.2033 N.pl3     1 <0>        -0.3838
     11 C9          0.1500   -1.2583   -2.1754 C.2       1 <0>         0.3819
     12 C10         1.1155   -1.4666   -3.1133 C.2       1 <0>        -0.2624
     13 C11         2.2681   -0.7935   -2.6984 C.2       1 <0>         0.0924
     14 N2          2.0129   -0.1976   -1.5616 N.2       1 <0>        -0.2874
     15 Cl1         0.9450   -2.4024   -4.5655 Cl        1 <0>        -0.0513
     16 N3         -1.1507   -1.7564   -2.2069 N.pl3     1 <0>        -0.8492
     17 H2          1.0039    1.9031    0.0027 H         1 <0>         0.0744
     18 H3         -0.5459    1.8868   -0.8726 H         1 <0>         0.0601
     19 H4         -0.5289    1.8773    0.9072 H         1 <0>         0.0793
     20 H5          1.7647   -0.1336    1.2338 H         1 <0>         0.0880
     21 H6          0.0111    1.0724    2.5063 H         1 <0>         0.0696
     22 H7         -0.9967   -0.3948    2.5081 H         1 <0>         0.0634
     23 H8          1.7885   -0.1470    3.7321 H         1 <0>         0.0637
     24 H9          0.2557   -0.1728    4.6367 H         1 <0>         0.0645
     25 H10         1.3139   -2.4152    4.6145 H         1 <0>         0.0623
     26 H11        -0.2359   -2.4314    3.7392 H         1 <0>         0.0608
     27 H12         2.5254   -2.1703    2.4649 H         1 <0>         0.0628
     28 H13         1.5176   -3.6375    2.4667 H         1 <0>         0.0617
     29 H14        -0.2598   -2.4180    1.2409 H         1 <0>         0.0576
     30 H15         1.2730   -2.3923    0.3363 H         1 <0>         0.0611
     31 H16         3.2087   -0.7663   -3.2283 H         1 <0>         0.1881
     32 H17        -1.7664   -1.5506   -1.4862 H         1 <0>         0.4012
     33 H18        -1.4405   -2.3090   -2.9495 H         1 <0>         0.4190
@<TRIPOS>BOND
     1    1    2 1
     2    1   17 1
     3    1   18 1
     4    1   19 1
     5    2    3 1
     6    2    4 1
     7    2   10 1
     8    4    9 1
     9    4    5 1
    10    4   20 1
    11    5    6 1
    12    5   21 1
    13    5   22 1
    14    6    7 1
    15    6   23 1
    16    6   24 1
    17    7    8 1
    18    7   25 1
    19    7   26 1
    20    8    9 1
    21    8   27 1
    22    8   28 1
    23    9   29 1
    24    9   30 1
    25   10   14 1
    26   10   11 1
    27   11   12 2
    28   11   16 1
    29   12   13 1
    30   12   15 1
    31   13   14 2
    32   13   31 1
    33   16   32 1
    34   16   33 1
