@<TRIPOS>MOLECULE
ZINC22076305
   61    63     0     0     0
SMALL
USER_CHARGES
N-[[3-bromo-4-[(4-chlorophenyl)methoxy]-5-ethoxy-phenyl]methyl]cyclooctanamine
@<TRIPOS>ATOM
      1 C1          1.1083    1.9939    4.7979 C.3       1 <0>        -0.1597
      2 C2          1.9212    2.4282    3.5768 C.3       1 <0>         0.0498
      3 O1          1.2213    2.0654    2.3849 O.3       1 <0>        -0.2913
      4 C3          1.8116    2.3823    1.2015 C.ar      1 <0>         0.1318
      5 C4          3.0402    3.0236    1.1881 C.ar      1 <0>        -0.1678
      6 C5          3.6366    3.3502   -0.0154 C.ar      1 <0>        -0.1200
      7 C6          3.0128    3.0340   -1.2080 C.ar      1 <0>        -0.0932
      8 C7          1.7893    2.3890   -1.2020 C.ar      1 <0>        -0.0804
      9 C8          1.1860    2.0587    0.0018 C.ar      1 <0>         0.1261
     10 O2         -0.0173    1.4248    0.0099 O.3       1 <0>        -0.3064
     11 C9          0.0021   -0.0041    0.0020 C.3       1 <0>         0.1098
     12 C10        -1.4117   -0.5257    0.0127 C.ar      1 <0>        -0.0962
     13 C11        -2.0465   -0.7766    1.2149 C.ar      1 <0>        -0.0783
     14 C12        -3.3452   -1.2497    1.2254 C.ar      1 <0>        -0.1133
     15 C13        -4.0058   -1.4828    0.0323 C.ar      1 <0>        -0.0211
     16 C14        -3.3680   -1.2368   -1.1705 C.ar      1 <0>        -0.1132
     17 C15        -2.0714   -0.7584   -1.1797 C.ar      1 <0>        -0.0788
     18 Cl1        -5.6347   -2.0831    0.0447 Cl        1 <0>        -0.0590
     19 Br1         0.9399    1.9571   -2.8354 Br        1 <0>         0.0020
     20 C16         4.9696    4.0531   -0.0276 C.3       1 <0>         0.0511
     21 N1          4.7569    5.5066   -0.0185 N.4       1 <0>        -0.5402
     22 C17         6.0375    6.2261   -0.0299 C.3       1 <0>         0.0066
     23 C18         6.5603    6.3598    1.4019 C.3       1 <0>        -0.1373
     24 C19         8.0424    6.7378    1.3702 C.3       1 <0>        -0.1303
     25 C20         8.7643    5.8877    0.3230 C.3       1 <0>        -0.1311
     26 C21         9.2340    6.7833   -0.8252 C.3       1 <0>        -0.1310
     27 C22         8.0392    7.1464   -1.7092 C.3       1 <0>        -0.1314
     28 C23         7.1928    8.2123   -1.0106 C.3       1 <0>        -0.1301
     29 C24         5.8349    7.6185   -0.6310 C.3       1 <0>        -0.1364
     30 H1          1.6471    2.2732    5.7153 H         1 <0>         0.0866
     31 H2          0.9653    0.9035    4.7742 H         1 <0>         0.0722
     32 H3          0.1280    2.4927    4.7821 H         1 <0>         0.0729
     33 H4          2.0642    3.5186    3.6005 H         1 <0>         0.0653
     34 H5          2.9015    1.9294    3.5926 H         1 <0>         0.0672
     35 H6          3.5298    3.2718    2.1182 H         1 <0>         0.1463
     36 H7          3.4820    3.2909   -2.1463 H         1 <0>         0.1474
     37 H8          0.5170   -0.3588   -0.9030 H         1 <0>         0.0707
     38 H9          0.5342   -0.3685    0.8931 H         1 <0>         0.0713
     39 H10        -1.5291   -0.5988    2.1460 H         1 <0>         0.1339
     40 H11        -3.8425   -1.4415    2.1646 H         1 <0>         0.1386
     41 H12        -3.8834   -1.4182   -2.1021 H         1 <0>         0.1387
     42 H13        -1.5735   -0.5660   -2.1186 H         1 <0>         0.1331
     43 H14         5.5461    3.7613    0.8626 H         1 <0>         0.1374
     44 H15         5.5254    3.7695   -0.9335 H         1 <0>         0.1390
     45 H16         4.1805    5.7984   -0.9088 H         1 <0>         0.4482
     46 H17         6.7368    5.6388   -0.6431 H         1 <0>         0.1531
     47 H18         5.9934    7.1423    1.9276 H         1 <0>         0.0914
     48 H19         6.4373    5.4017    1.9281 H         1 <0>         0.0811
     49 H20         8.1439    7.8021    1.1113 H         1 <0>         0.0881
     50 H21         8.4882    6.5570    2.3594 H         1 <0>         0.0812
     51 H22         9.6339    5.3973    0.7849 H         1 <0>         0.0743
     52 H23         8.0761    5.1230   -0.0663 H         1 <0>         0.0603
     53 H24         9.6797    7.7016   -0.4152 H         1 <0>         0.0749
     54 H25         9.9847    6.2475   -1.4247 H         1 <0>         0.0708
     55 H26         8.4007    7.5380   -2.6715 H         1 <0>         0.0747
     56 H27         7.4271    6.2495   -1.8850 H         1 <0>         0.0608
     57 H28         7.7102    8.5539   -0.1020 H         1 <0>         0.0874
     58 H29         7.0430    9.0647   -1.6896 H         1 <0>         0.0822
     59 H30         5.2041    7.5420   -1.5289 H         1 <0>         0.0844
     60 H31         5.3438    8.2689    0.1078 H         1 <0>         0.0911
     61 H32         4.2010    5.7902    0.8874 H         1 <0>         0.4448
@<TRIPOS>BOND
     1    1    2 1
     2    1   30 1
     3    1   31 1
     4    1   32 1
     5    2    3 1
     6    2   33 1
     7    2   34 1
     8    3    4 1
     9    4    9 ar
    10    4    5 ar
    11    5    6 ar
    12    5   35 1
    13    6    7 ar
    14    6   20 1
    15    7    8 ar
    16    7   36 1
    17    8    9 ar
    18    8   19 1
    19    9   10 1
    20   10   11 1
    21   11   12 1
    22   11   37 1
    23   11   38 1
    24   12   17 ar
    25   12   13 ar
    26   13   14 ar
    27   13   39 1
    28   14   15 ar
    29   14   40 1
    30   15   16 ar
    31   15   18 1
    32   16   17 ar
    33   16   41 1
    34   17   42 1
    35   20   21 1
    36   20   43 1
    37   20   44 1
    38   21   22 1
    39   21   45 1
    40   21   61 1
    41   22   29 1
    42   22   23 1
    43   22   46 1
    44   23   24 1
    45   23   47 1
    46   23   48 1
    47   24   25 1
    48   24   49 1
    49   24   50 1
    50   25   26 1
    51   25   51 1
    52   25   52 1
    53   26   27 1
    54   26   53 1
    55   26   54 1
    56   27   28 1
    57   27   55 1
    58   27   56 1
    59   28   29 1
    60   28   57 1
    61   28   58 1
    62   29   59 1
    63   29   60 1
