@<TRIPOS>MOLECULE
ZINC63383782
   71    75     0     0     0
SMALL
USER_CHARGES

@<TRIPOS>ATOM
      1 C1          0.5774    0.0484    0.8963 C.3       1 <0>        -0.1598
      2 C2          0.8205   -1.4020    0.4742 C.3       1 <0>        -0.1348
      3 C3          1.2978   -1.4370   -0.9790 C.3       1 <0>         0.1377
      4 H1          0.5785   -0.9153   -1.6104 H         1 <0>         0.0926
      5 C4          1.4213   -2.8905   -1.4403 C.3       1 <0>        -0.1650
      6 N1          2.6032   -0.7799   -1.0802 N.am      1 <0>        -0.7151
      7 C5          2.9967   -0.2395   -2.2505 C.2       1 <0>         0.5153
      8 O1          2.2962   -0.3480   -3.2346 O.2       1 <0>        -0.5345
      9 C6          4.3073    0.4995   -2.3364 C.3       1 <0>         0.1253
     10 H2          5.0927   -0.0988   -1.8746 H         1 <0>         0.1169
     11 C7          4.1875    1.8371   -1.6034 C.3       1 <0>        -0.1222
     12 C8          3.9064    1.5829   -0.1210 C.3       1 <0>        -0.1161
     13 C9          5.1223    0.9115    0.5208 C.3       1 <0>        -0.1562
     14 C10         3.6290    2.9138    0.5810 C.3       1 <0>        -0.1471
     15 N2          4.6404    0.7413   -3.7424 N.am      1 <0>        -0.7052
     16 C11         5.9173    0.9812   -4.1008 C.2       1 <0>         0.5051
     17 O2          6.8027    0.9086   -3.2752 O.2       1 <0>        -0.5137
     18 C12         6.2448    1.3398   -5.5274 C.3       1 <0>         0.1506
     19 H3          5.7199    2.2533   -5.8069 H         1 <0>         0.1537
     20 C13         5.8229    0.1903   -6.4628 C.3       1 <0>        -0.0991
     21 C14         7.0788   -0.3320   -7.1142 C.2       1 <0>         0.0716
     22 C15         7.3627   -0.5420   -8.3968 C.ar      1 <0>        -0.1564
     23 C16         6.5378   -0.4331   -9.6106 C.ar      1 <0>         0.0000
     24 C17         7.1621   -0.7104  -10.7858 C.ar      1 <0>        -0.1578
     25 C18         8.5076   -1.0807  -10.8736 C.ar      1 <0>         0.0579
     26 C19         9.3381   -1.2124   -9.8086 C.ar      1 <0>        -0.2087
     27 C20         8.7943   -0.9526   -8.5170 C.ar      1 <0>         0.3407
     28 N3          9.3478   -1.0186   -7.3425 N.pl3     1 <0>        -0.5702
     29 C21         8.3299   -0.7144   -6.3356 C.3       1 <0>         0.0830
     30 H4          8.1375   -1.5899   -5.7155 H         1 <0>         0.1831
     31 C22         8.7143    0.4875   -5.4749 C.3       1 <0>         0.1861
     32 H5          8.7562    0.1967   -4.4252 H         1 <0>         0.1492
     33 N4          7.6930    1.5370   -5.6691 N.am      1 <0>        -0.6097
     34 C23         8.3139    2.6825   -6.0099 C.2       1 <0>         0.5707
     35 O3          7.7699    3.7639   -6.1201 O.2       1 <0>        -0.4872
     36 C24         9.7403    2.4341   -6.2284 C.ar      1 <0>        -0.1571
     37 C25        10.0227    1.0704   -5.8968 C.ar      1 <0>        -0.1054
     38 C26        11.2837    0.5262   -5.9955 C.ar      1 <0>        -0.1076
     39 C27        12.3046    1.3699   -6.4238 C.ar      1 <0>        -0.0819
     40 C28        12.0712    2.6943   -6.7354 C.ar      1 <0>        -0.1111
     41 C29        10.7595    3.2863   -6.6612 C.ar      1 <0>        -0.0162
     42 H6          1.5048    0.6138    0.8048 H         1 <0>         0.0569
     43 H7         -0.1832    0.4914    0.2533 H         1 <0>         0.0576
     44 H8          0.2374    0.0734    1.9317 H         1 <0>         0.0614
     45 H9          1.5810   -1.8449    1.1172 H         1 <0>         0.0697
     46 H10        -0.1069   -1.9673    0.5658 H         1 <0>         0.0843
     47 H11         2.1406   -3.4122   -0.8090 H         1 <0>         0.0579
     48 H12         0.4500   -3.3794   -1.3650 H         1 <0>         0.0706
     49 H13         1.7613   -2.9155   -2.4756 H         1 <0>         0.0599
     50 H14         3.1844   -0.7337   -0.3050 H         1 <0>         0.4048
     51 H15         5.1196    2.3926   -1.7064 H         1 <0>         0.0840
     52 H16         3.3702    2.4156   -2.0341 H         1 <0>         0.0757
     53 H17         3.0377    0.9320   -0.0223 H         1 <0>         0.0860
     54 H18         5.9723    1.5932    0.4898 H         1 <0>         0.0629
     55 H19         4.8945    0.6617    1.5570 H         1 <0>         0.0628
     56 H20         5.3662    0.0014   -0.0272 H         1 <0>         0.0518
     57 H21         2.7628    3.3921    0.1237 H         1 <0>         0.0569
     58 H22         3.4288    2.7327    1.6370 H         1 <0>         0.0615
     59 H23         4.4977    3.5647    0.4823 H         1 <0>         0.0575
     60 H24         3.9419    0.7286   -4.4154 H         1 <0>         0.4146
     61 H25         5.3459   -0.6022   -5.8862 H         1 <0>         0.1356
     62 H26         5.1367    0.5627   -7.2234 H         1 <0>         0.1343
     63 H27         5.4964   -0.1496   -9.5699 H         1 <0>         0.1709
     64 H28         6.5892   -0.6415  -11.6988 H         1 <0>         0.1564
     65 H29         8.9132   -1.2753  -11.8554 H         1 <0>         0.1589
     66 H30        10.3706   -1.5029   -9.9348 H         1 <0>         0.1695
     67 H31        11.4722   -0.5088   -5.7512 H         1 <0>         0.1412
     68 H32        13.3067    0.9777   -6.5144 H         1 <0>         0.1424
     69 H33        12.8970    3.3104   -7.0592 H         1 <0>         0.1421
     70 H34        10.5679    4.3226   -6.8974 H         1 <0>         0.1565
     71 H35        10.2769   -1.2326   -7.1640 H         1 <0>         0.4537
@<TRIPOS>BOND
     1    1    2 1
     2    1   42 1
     3    1   43 1
     4    1   44 1
     5    2    3 1
     6    2   45 1
     7    2   46 1
     8    3    4 1
     9    3    5 1
    10    3    6 1
    11    5   47 1
    12    5   48 1
    13    5   49 1
    14    6    7 am
    15    6   50 1
    16    7    8 2
    17    7    9 1
    18    9   10 1
    19    9   11 1
    20    9   15 1
    21   11   12 1
    22   11   51 1
    23   11   52 1
    24   12   13 1
    25   12   14 1
    26   12   53 1
    27   13   54 1
    28   13   55 1
    29   13   56 1
    30   14   57 1
    31   14   58 1
    32   14   59 1
    33   15   16 am
    34   15   60 1
    35   16   17 2
    36   16   18 1
    37   18   19 1
    38   18   33 1
    39   18   20 1
    40   20   21 1
    41   20   61 1
    42   20   62 1
    43   21   29 1
    44   21   22 2
    45   22   27 ar
    46   22   23 ar
    47   23   24 ar
    48   23   63 1
    49   24   25 ar
    50   24   64 1
    51   25   26 ar
    52   25   65 1
    53   26   27 ar
    54   26   66 1
    55   27   28 2
    56   28   29 1
    57   28   71 1
    58   29   30 1
    59   29   31 1
    60   31   32 1
    61   31   37 1
    62   31   33 1
    63   33   34 am
    64   34   35 2
    65   34   36 1
    66   36   41 ar
    67   36   37 ar
    68   37   38 ar
    69   38   39 ar
    70   38   67 1
    71   39   40 ar
    72   39   68 1
    73   40   41 ar
    74   40   69 1
    75   41   70 1
