@<TRIPOS>MOLECULE
ZINC34912075
   59    62     0     0     0
SMALL
USER_CHARGES

@<TRIPOS>ATOM
      1 C1         -0.0496    1.4031   -0.0009 C.2       1 <0>        -0.1623
      2 C2          1.1540    2.0828   -0.0070 C.2       1 <0>        -0.1340
      3 C3          2.3092    1.3738   -0.0155 C.2       1 <0>        -0.1529
      4 S1          1.7103   -0.3080   -0.0152 S.3       1 <0>         0.0539
      5 C4         -0.0391    0.0477   -0.0037 C.2       1 <0>        -0.1597
      6 C5          3.7304    1.8751   -0.0237 C.3       1 <0>        -0.0511
      7 C6          4.2131    2.0398    1.3944 C.2       1 <0>         0.5187
      8 O1          3.4757    1.7761    2.3205 O.2       1 <0>        -0.5040
      9 N1          5.4642    2.4802    1.6335 N.am      1 <0>        -0.6264
     10 C7          6.3671    2.8094    0.5221 C.3       1 <0>         0.1100
     11 C8          6.8961    4.2332    0.7219 C.3       1 <0>        -0.1605
     12 C9          7.5373    4.3452    2.1069 C.3       1 <0>         0.0258
     13 C10         6.4849    4.0657    3.1823 C.3       1 <0>        -0.1570
     14 C11         5.9492    2.6458    3.0105 C.3       1 <0>         0.1154
     15 N2          8.0753    5.7000    2.2891 N.4       1 <0>        -0.3833
     16 C12         9.0792    5.9696    1.2528 C.3       1 <0>        -0.0108
     17 C13         9.5841    7.4077    1.3883 C.3       1 <0>        -0.1276
     18 C14        10.2137    7.5937    2.7719 C.3       1 <0>        -0.1193
     19 C15         9.1799    7.2381    3.8443 C.3       1 <0>        -0.1412
     20 C16         8.6900    5.8062    3.6177 C.3       1 <0>        -0.0088
     21 C17        10.6427    9.0283    2.9416 C.2       1 <0>         0.5162
     22 O2         10.4633    9.8251    2.0449 O.2       1 <0>        -0.5057
     23 N3         11.2258    9.4259    4.0898 N.am      1 <0>        -0.6650
     24 C18        11.7118   10.7335    4.2120 C.ar      1 <0>         0.1160
     25 C19        12.8646   10.9810    4.9454 C.ar      1 <0>        -0.1085
     26 C20        13.3423   12.2714    5.0647 C.ar      1 <0>        -0.1339
     27 C21        12.6721   13.3180    4.4540 C.ar      1 <0>         0.0977
     28 C22        11.5223   13.0733    3.7223 C.ar      1 <0>        -0.1359
     29 C23        11.0448   11.7836    3.5953 C.ar      1 <0>        -0.0885
     30 F1         13.1405   14.5797    4.5727 F         1 <0>        -0.1328
     31 H1         -0.9844    1.9440    0.0103 H         1 <0>         0.1367
     32 H2          1.1737    3.1626   -0.0053 H         1 <0>         0.1289
     33 H3         -0.8728   -0.6389    0.0004 H         1 <0>         0.1891
     34 H4          4.3658    1.1575   -0.5428 H         1 <0>         0.1120
     35 H5          3.7737    2.8361   -0.5362 H         1 <0>         0.1156
     36 H6          7.2014    2.1081    0.5090 H         1 <0>         0.0866
     37 H7          5.8229    2.7507   -0.4205 H         1 <0>         0.1080
     38 H8          7.6405    4.4553   -0.0427 H         1 <0>         0.1047
     39 H9          6.0716    4.9419    0.6443 H         1 <0>         0.0945
     40 H10         8.3458    3.6192    2.1926 H         1 <0>         0.1416
     41 H11         6.9367    4.1685    4.1689 H         1 <0>         0.1022
     42 H12         5.6643    4.7759    3.0815 H         1 <0>         0.0927
     43 H13         5.1293    2.4792    3.7091 H         1 <0>         0.1133
     44 H14         6.7487    1.9309    3.2048 H         1 <0>         0.0811
     45 H15         9.9147    5.2792    1.3686 H         1 <0>         0.1326
     46 H16         8.6306    5.8337    0.2688 H         1 <0>         0.1386
     47 H17        10.3307    7.6054    0.6192 H         1 <0>         0.1222
     48 H18         8.7494    8.0990    1.2724 H         1 <0>         0.0990
     49 H19        11.0798    6.9391    2.8692 H         1 <0>         0.1207
     50 H20         9.6375    7.3144    4.8306 H         1 <0>         0.1180
     51 H21         8.3367    7.9258    3.7793 H         1 <0>         0.0974
     52 H22         7.9539    5.5497    4.3797 H         1 <0>         0.1387
     53 H23         9.5338    5.1193    3.6832 H         1 <0>         0.1344
     54 H24        11.3088    8.8064    4.8315 H         1 <0>         0.4123
     55 H25        13.3872   10.1650    5.4224 H         1 <0>         0.1376
     56 H26        14.2389   12.4643    5.6350 H         1 <0>         0.1448
     57 H27        11.0009   13.8910    3.2470 H         1 <0>         0.1430
     58 H28        10.1504   11.5926    3.0208 H         1 <0>         0.1465
     59 H29         7.3261    6.3714    2.2115 H         1 <0>         0.4226
@<TRIPOS>BOND
     1    1    5 2
     2    1    2 1
     3    1   31 1
     4    2    3 2
     5    2   32 1
     6    3    4 1
     7    3    6 1
     8    4    5 1
     9    5   33 1
    10    6    7 1
    11    6   34 1
    12    6   35 1
    13    7    8 2
    14    7    9 am
    15    9   14 1
    16    9   10 1
    17   10   11 1
    18   10   36 1
    19   10   37 1
    20   11   12 1
    21   11   38 1
    22   11   39 1
    23   12   13 1
    24   12   15 1
    25   12   40 1
    26   13   14 1
    27   13   41 1
    28   13   42 1
    29   14   43 1
    30   14   44 1
    31   15   20 1
    32   15   16 1
    33   15   59 1
    34   16   17 1
    35   16   45 1
    36   16   46 1
    37   17   18 1
    38   17   47 1
    39   17   48 1
    40   18   19 1
    41   18   21 1
    42   18   49 1
    43   19   20 1
    44   19   50 1
    45   19   51 1
    46   20   52 1
    47   20   53 1
    48   21   22 2
    49   21   23 am
    50   23   24 1
    51   23   54 1
    52   24   29 ar
    53   24   25 ar
    54   25   26 ar
    55   25   55 1
    56   26   27 ar
    57   26   56 1
    58   27   28 ar
    59   27   30 1
    60   28   29 ar
    61   28   57 1
    62   29   58 1
