@<TRIPOS>MOLECULE
CHEMBL1204023
   36    37     0     0     0
SMALL
USER_CHARGES

@<TRIPOS>ATOM
      1 C1         -0.0172    1.4181    0.0098 C.2       1 <0>        -0.3349
      2 C2          1.1487    2.0917    0.0023 C.2       1 <0>         0.1149
      3 N1          2.3417    1.4432   -0.0130 N.2       1 <0>        -0.5538
      4 C3          2.4277    0.0805   -0.0212 C.2       1 <0>         0.0240
      5 C4          1.3090   -0.6786   -0.0141 C.2       1 <0>         0.0999
      6 C5          0.0021   -0.0041    0.0020 C.2       1 <0>         0.3082
      7 N2         -1.1230   -0.7000    0.0095 N.2       1 <0>        -1.0435
      8 S1         -2.5815    0.0840    0.0281 S.o2      1 <0>         2.5259
      9 O1         -2.6031    0.7801    1.2668 O.2       1 <0>        -0.9446
     10 O2         -2.6277    0.7933   -1.2023 O.2       1 <0>        -0.9444
     11 C6         -3.8221   -1.2394    0.0334 C.3       1 <0>        -0.0095
     12 F1         -3.6487   -2.0367    1.1697 F         1 <0>        -0.1636
     13 F2         -5.1033   -0.6775    0.0491 F         1 <0>        -0.1813
     14 F3         -3.6713   -2.0245   -1.1147 F         1 <0>        -0.1637
     15 N3          1.3929   -2.0794   -0.0229 N.pl3     1 <0>        -0.7404
     16 C7          2.7031   -2.7347   -0.0399 C.3       1 <0>         0.1623
     17 C8          3.2008   -2.8422   -1.4827 C.3       1 <0>        -0.1367
     18 C9          4.5692   -3.5265   -1.5005 C.3       1 <0>        -0.1169
     19 C10         4.4466   -4.9274   -0.8975 C.3       1 <0>        -0.1197
     20 C11         3.9489   -4.8199    0.5452 C.3       1 <0>        -0.1143
     21 C12         2.5806   -4.1355    0.5630 C.3       1 <0>        -0.1254
     22 H1         -0.9561    1.9515    0.0261 H         1 <0>         0.1056
     23 H2          1.1348    3.1716    0.0083 H         1 <0>         0.1292
     24 H3          3.3974   -0.3948   -0.0337 H         1 <0>         0.1332
     25 H4          0.5834   -2.6138   -0.0178 H         1 <0>         0.4016
     26 H5          3.4105   -2.1477    0.5457 H         1 <0>         0.0699
     27 H6          2.4934   -3.4292   -2.0684 H         1 <0>         0.0612
     28 H7          3.2881   -1.8442   -1.9123 H         1 <0>         0.0664
     29 H8          4.9238   -3.6031   -2.5283 H         1 <0>         0.0585
     30 H9          5.2766   -2.9395   -0.9148 H         1 <0>         0.0612
     31 H10         3.7392   -5.5144   -1.4832 H         1 <0>         0.0599
     32 H11         5.4215   -5.4149   -0.9102 H         1 <0>         0.0573
     33 H12         3.8616   -5.8178    0.9748 H         1 <0>         0.0603
     34 H13         4.6563   -4.2328    1.1309 H         1 <0>         0.0624
     35 H14         2.2259   -4.0589    1.5909 H         1 <0>         0.0665
     36 H15         1.8731   -4.7226   -0.0226 H         1 <0>         0.0640
@<TRIPOS>BOND
     1    1    6 1
     2    1    2 2
     3    1   22 1
     4    2    3 1
     5    2   23 1
     6    3    4 1
     7    4    5 2
     8    4   24 1
     9    5    6 1
    10    5   15 1
    11    6    7 2
    12    7    8 1
    13    8    9 2
    14    8   10 2
    15    8   11 1
    16   11   12 1
    17   11   13 1
    18   11   14 1
    19   15   16 1
    20   15   25 1
    21   16   21 1
    22   16   17 1
    23   16   26 1
    24   17   18 1
    25   17   27 1
    26   17   28 1
    27   18   19 1
    28   18   29 1
    29   18   30 1
    30   19   20 1
    31   19   31 1
    32   19   32 1
    33   20   21 1
    34   20   33 1
    35   20   34 1
    36   21   35 1
    37   21   36 1
