@<TRIPOS>MOLECULE
ZINC13479183
   44    47     0     0     0
SMALL
USER_CHARGES

@<TRIPOS>ATOM
      1 C1         -5.4480   -2.2335    1.0862 C.3       1 <0>        -0.1147
      2 C2         -4.0007   -1.8147    1.1163 C.ar      1 <0>        -0.0759
      3 C3         -3.5757   -0.7429    0.3525 C.ar      1 <0>        -0.1125
      4 C4         -2.2486   -0.3558    0.3769 C.ar      1 <0>        -0.1099
      5 C5         -1.3427   -1.0389    1.1648 C.ar      1 <0>        -0.1265
      6 C6         -1.7663   -2.1152    1.9332 C.ar      1 <0>         0.1246
      7 C7         -3.1014   -2.4980    1.9107 C.ar      1 <0>        -0.0713
      8 N1         -0.8515   -2.8094    2.7318 N.pl3     1 <0>        -0.6243
      9 C8         -0.8872   -4.1558    2.7826 C.2       1 <0>         0.5488
     10 S1         -1.9393   -5.0239    1.7481 S.2       1 <0>        -0.5857
     11 N2         -0.0945   -4.8187    3.6480 N.pl3     1 <0>        -0.6128
     12 C9         -0.0726   -6.2188    3.6457 C.ar      1 <0>         0.1289
     13 C10        -0.0618   -6.9048    2.4431 C.ar      1 <0>        -0.0281
     14 C11        -0.0400   -8.2935    2.4333 C.ar      1 <0>         0.0625
     15 C12        -0.0292   -8.9887    3.6506 C.ar      1 <0>        -0.0723
     16 C13        -0.0396   -8.2957    4.8578 C.ar      1 <0>        -0.1525
     17 C14        -0.0559   -6.9142    4.8559 C.ar      1 <0>         0.1160
     18 O1         -0.0606   -6.2320    6.0330 O.3       1 <0>        -0.3160
     19 C15        -0.0427   -7.0081    7.2327 C.3       1 <0>         0.0262
     20 C16        -0.0073  -10.4200    3.2930 C.ar      1 <0>        -0.1296
     21 C17         0.0108  -11.5999    4.0294 C.ar      1 <0>        -0.0586
     22 C18         0.0293  -12.8140    3.3755 C.ar      1 <0>        -0.1407
     23 C19         0.0297  -12.8583    1.9903 C.ar      1 <0>        -0.0780
     24 C20         0.0123  -11.6945    1.2507 C.ar      1 <0>        -0.1169
     25 C21        -0.0069  -10.4616    1.8918 C.ar      1 <0>         0.0933
     26 O2         -0.0263   -9.1939    1.4245 O.3       1 <0>        -0.1921
     27 H1         -5.9983   -1.6944    1.8573 H         1 <0>         0.0700
     28 H2         -5.8726   -2.0035    0.1089 H         1 <0>         0.0680
     29 H3         -5.5201   -3.3054    1.2705 H         1 <0>         0.0704
     30 H4         -4.2819   -0.2074   -0.2647 H         1 <0>         0.1252
     31 H5         -1.9198    0.4814   -0.2210 H         1 <0>         0.1284
     32 H6         -0.3061   -0.7365    1.1829 H         1 <0>         0.1238
     33 H7         -3.4348   -3.3321    2.5103 H         1 <0>         0.1398
     34 H8         -0.1914   -2.3219    3.2489 H         1 <0>         0.4088
     35 H9          0.4607   -4.3259    4.2723 H         1 <0>         0.4146
     36 H10        -0.0707   -6.3592    1.5111 H         1 <0>         0.1647
     37 H11        -0.0311   -8.8361    5.7928 H         1 <0>         0.1422
     38 H12        -0.0487   -6.3427    8.0960 H         1 <0>         0.1040
     39 H13        -0.9228   -7.6505    7.2630 H         1 <0>         0.0598
     40 H14         0.8569   -7.6232    7.2542 H         1 <0>         0.0594
     41 H15         0.0109  -11.5654    5.1088 H         1 <0>         0.1289
     42 H16         0.0438  -13.7321    3.9440 H         1 <0>         0.1338
     43 H17         0.0442  -13.8129    1.4855 H         1 <0>         0.1393
     44 H18         0.0132  -11.7412    0.1717 H         1 <0>         0.1370
@<TRIPOS>BOND
     1    1    2 1
     2    1   27 1
     3    1   28 1
     4    1   29 1
     5    2    7 ar
     6    2    3 ar
     7    3    4 ar
     8    3   30 1
     9    4    5 ar
    10    4   31 1
    11    5    6 ar
    12    5   32 1
    13    6    7 ar
    14    6    8 1
    15    7   33 1
    16    8    9 1
    17    8   34 1
    18    9   10 2
    19    9   11 1
    20   11   12 1
    21   11   35 1
    22   12   17 ar
    23   12   13 ar
    24   13   14 ar
    25   13   36 1
    26   14   26 1
    27   14   15 ar
    28   15   16 ar
    29   15   20 1
    30   16   17 ar
    31   16   37 1
    32   17   18 1
    33   18   19 1
    34   19   38 1
    35   19   39 1
    36   19   40 1
    37   20   25 ar
    38   20   21 ar
    39   21   22 ar
    40   21   41 1
    41   22   23 ar
    42   22   42 1
    43   23   24 ar
    44   23   43 1
    45   24   25 ar
    46   24   44 1
    47   25   26 1
