@<TRIPOS>MOLECULE
ZINC00089466
   40    44     0     0     0
SMALL
USER_CHARGES
methyl-(1-naphthyloxy)BLAH
@<TRIPOS>ATOM
      1 C1         -0.1588   -6.7380    0.1599 C.3       1 <0>        -0.0848
      2 C2          1.1924   -6.0708    0.1605 C.ar      1 <0>         0.3783
      3 N1          1.2624   -4.7547    0.0670 N.ar      1 <0>        -0.5674
      4 C3          2.4164   -4.1096    0.0607 C.ar      1 <0>         0.4131
      5 C4          3.6220   -4.8542    0.1513 C.ar      1 <0>        -0.1950
      6 C5          5.0069   -4.3550    0.1670 C.2       1 <0>        -0.0982
      7 C6          5.9815   -5.2724    0.2717 C.2       1 <0>        -0.1744
      8 S1          5.1388   -6.8361    0.3594 S.3       1 <0>         0.1643
      9 C7          3.4700   -6.2496    0.2554 C.ar      1 <0>         0.1407
     10 N2          2.2781   -6.8142    0.2540 N.ar      1 <0>        -0.4947
     11 C8          7.3514   -4.6483    0.2764 C.3       1 <0>        -0.0358
     12 C9          7.0973   -3.1585    0.5949 C.3       1 <0>        -0.1168
     13 C10         5.6560   -2.9705    0.0825 C.3       1 <0>        -0.0617
     14 O1          2.4484   -2.7590   -0.0362 O.3       1 <0>        -0.2288
     15 C11         1.2675   -2.0893   -0.0024 C.ar      1 <0>         0.0909
     16 C12         0.6440   -1.7217   -1.1735 C.ar      1 <0>        -0.0986
     17 C13        -0.5666   -1.0349   -1.1506 C.ar      1 <0>        -0.1077
     18 C14        -1.1669   -0.7083    0.0270 C.ar      1 <0>        -0.0924
     19 C15        -0.5629   -1.0654    1.2443 C.ar      1 <0>        -0.0439
     20 C16         0.6695   -1.7645    1.2324 C.ar      1 <0>        -0.0450
     21 C17         1.2724   -2.1197    2.4498 C.ar      1 <0>        -0.1051
     22 C18         0.6669   -1.7889    3.6234 C.ar      1 <0>        -0.1070
     23 C19        -0.5458   -1.1024    3.6360 C.ar      1 <0>        -0.1127
     24 C20        -1.1586   -0.7415    2.4757 C.ar      1 <0>        -0.1016
     25 H1         -0.4472   -6.9737   -0.8645 H         1 <0>         0.0934
     26 H2         -0.1106   -7.6569    0.7443 H         1 <0>         0.0931
     27 H3         -0.8960   -6.0661    0.5995 H         1 <0>         0.0910
     28 H4          7.9733   -5.1016    1.0483 H         1 <0>         0.0851
     29 H5          7.8207   -4.7534   -0.7018 H         1 <0>         0.0913
     30 H6          7.1576   -2.9729    1.6673 H         1 <0>         0.0789
     31 H7          7.7917   -2.5190    0.0501 H         1 <0>         0.0878
     32 H8          5.1200   -2.2635    0.7157 H         1 <0>         0.0785
     33 H9          5.6655   -2.6195   -0.9494 H         1 <0>         0.0836
     34 H10         1.0993   -1.9693   -2.1210 H         1 <0>         0.1301
     35 H11        -1.0371   -0.7565   -2.0820 H         1 <0>         0.1337
     36 H12        -2.1063   -0.1755    0.0254 H         1 <0>         0.1345
     37 H13         2.2119   -2.6523    2.4550 H         1 <0>         0.1186
     38 H14         1.1329   -2.0630    4.5583 H         1 <0>         0.1250
     39 H15        -1.0056   -0.8522    4.5806 H         1 <0>         0.1272
     40 H16        -2.0956   -0.2050    2.5008 H         1 <0>         0.1326
@<TRIPOS>BOND
     1    1    2 1
     2    1   25 1
     3    1   26 1
     4    1   27 1
     5    2   10 ar
     6    2    3 ar
     7    3    4 ar
     8    4    5 ar
     9    4   14 1
    10    5    9 ar
    11    5    6 1
    12    6   13 1
    13    6    7 2
    14    7    8 1
    15    7   11 1
    16    8    9 1
    17    9   10 ar
    18   11   12 1
    19   11   28 1
    20   11   29 1
    21   12   13 1
    22   12   30 1
    23   12   31 1
    24   13   32 1
    25   13   33 1
    26   14   15 1
    27   15   20 ar
    28   15   16 ar
    29   16   17 ar
    30   16   34 1
    31   17   18 ar
    32   17   35 1
    33   18   19 ar
    34   18   36 1
    35   19   24 ar
    36   19   20 ar
    37   20   21 ar
    38   21   22 ar
    39   21   37 1
    40   22   23 ar
    41   22   38 1
    42   23   24 ar
    43   23   39 1
    44   24   40 1
