@<TRIPOS>MOLECULE
ZINC12375816
   38    42     0     0     0
SMALL
USER_CHARGES

@<TRIPOS>ATOM
      1 C1          0.0239    1.4489    0.0756 C.ar      1 <0>        -0.1282
      2 C2          0.9187    1.5619    1.1256 C.ar      1 <0>        -0.1029
      3 C3          2.1125    0.8728    1.0961 C.ar      1 <0>        -0.1366
      4 C4          2.4183    0.0577    0.0010 C.ar      1 <0>         0.0839
      5 C5          1.5086   -0.0511   -1.0563 C.ar      1 <0>        -0.1190
      6 C6          0.3191    0.6446   -1.0116 C.ar      1 <0>        -0.1018
      7 N1          3.5968   -0.6266   -0.0360 N.2       1 <0>        -0.4442
      8 C7          3.8242   -1.5877    0.8266 C.2       1 <0>         0.2808
      9 C8          2.8574   -2.1428    1.7998 C.ar      1 <0>        -0.1096
     10 C9          1.5264   -1.8384    2.0723 C.ar      1 <0>        -0.0751
     11 C10         0.8495   -2.5311    3.0580 C.ar      1 <0>        -0.1057
     12 C11         1.4880   -3.5265    3.7770 C.ar      1 <0>        -0.0985
     13 C12         2.8090   -3.8402    3.5188 C.ar      1 <0>        -0.0737
     14 C13         3.5064   -3.1535    2.5288 C.ar      1 <0>        -0.0319
     15 C14         4.9029   -3.2721    2.0430 C.ar      1 <0>         0.2147
     16 C15         5.0931   -2.3253    1.0059 C.ar      1 <0>        -0.1321
     17 C16         6.3191   -2.2326    0.3727 C.ar      1 <0>         0.0101
     18 C17         7.3464   -3.1011    0.7893 C.ar      1 <0>        -0.1078
     19 C18         8.6162   -3.0627    0.1921 C.ar      1 <0>        -0.0870
     20 C19         9.5881   -3.9168    0.6194 C.ar      1 <0>        -0.1150
     21 C20         9.3372   -4.8282    1.6423 C.ar      1 <0>        -0.0900
     22 C21         8.1170   -4.8926    2.2432 C.ar      1 <0>        -0.0949
     23 C22         7.0877   -4.0277    1.8309 C.ar      1 <0>         0.1481
     24 N2          5.8863   -4.0702    2.4143 N.ar      1 <0>        -0.4589
     25 H1         -0.9115    1.9878    0.1067 H         1 <0>         0.1266
     26 H2          0.6812    2.1918    1.9701 H         1 <0>         0.1285
     27 H3          2.8097    0.9622    1.9159 H         1 <0>         0.1233
     28 H4          1.7376   -0.6781   -1.9053 H         1 <0>         0.1273
     29 H5         -0.3844    0.5614   -1.8268 H         1 <0>         0.1293
     30 H6          1.0239   -1.0620    1.5145 H         1 <0>         0.1361
     31 H7         -0.1830   -2.2942    3.2686 H         1 <0>         0.1354
     32 H8          0.9502   -4.0618    4.5456 H         1 <0>         0.1366
     33 H9          3.2999   -4.6183    4.0844 H         1 <0>         0.1377
     34 H10         6.4836   -1.5157   -0.4181 H         1 <0>         0.1519
     35 H11         8.8216   -2.3603   -0.6022 H         1 <0>         0.1354
     36 H12        10.5646   -3.8869    0.1591 H         1 <0>         0.1327
     37 H13        10.1234   -5.4952    1.9640 H         1 <0>         0.1347
     38 H14         7.9402   -5.6058    3.0346 H         1 <0>         0.1398
@<TRIPOS>BOND
     1    1    6 ar
     2    1    2 ar
     3    1   25 1
     4    2    3 ar
     5    2   26 1
     6    3    4 ar
     7    3   27 1
     8    4    5 ar
     9    4    7 1
    10    5    6 ar
    11    5   28 1
    12    6   29 1
    13    7    8 2
    14    8   16 1
    15    8    9 1
    16    9   14 ar
    17    9   10 ar
    18   10   11 ar
    19   10   30 1
    20   11   12 ar
    21   11   31 1
    22   12   13 ar
    23   12   32 1
    24   13   14 ar
    25   13   33 1
    26   14   15 1
    27   15   24 ar
    28   15   16 ar
    29   16   17 ar
    30   17   18 ar
    31   17   34 1
    32   18   23 ar
    33   18   19 ar
    34   19   20 ar
    35   19   35 1
    36   20   21 ar
    37   20   36 1
    38   21   22 ar
    39   21   37 1
    40   22   23 ar
    41   22   38 1
    42   23   24 ar
