@<TRIPOS>MOLECULE
ZINC32565134
   46    49     0     0     0
SMALL
USER_CHARGES
2-oxo-N-[(1R,2S)-2-phenylcyclohexyl]-1H-quinazoline-4-carboxamide
@<TRIPOS>ATOM
      1 C1          2.3649    3.0571   -4.6579 C.ar      1 <0>        -0.1250
      2 C2          2.5551    4.0609   -3.7268 C.ar      1 <0>        -0.1155
      3 C3          2.9209    3.7427   -2.4323 C.ar      1 <0>        -0.1133
      4 C4          3.0965    2.4206   -2.0689 C.ar      1 <0>        -0.0726
      5 C5          2.9114    1.4170   -3.0014 C.ar      1 <0>        -0.1111
      6 C6          2.5401    1.7349   -4.2944 C.ar      1 <0>        -0.1187
      7 C7          3.4958    2.0736   -0.6578 C.3       1 <0>        -0.0536
      8 H1          3.5956    3.0050   -0.0812 H         1 <0>         0.0852
      9 C8          4.8310    1.3267   -0.6746 C.3       1 <0>        -0.1053
     10 C9          5.2363    0.9744    0.7581 C.3       1 <0>        -0.1212
     11 C10         4.1624    0.0852    1.3880 C.3       1 <0>        -0.1164
     12 C11         2.8272    0.8322    1.4048 C.3       1 <0>        -0.1312
     13 C12         2.4218    1.1844   -0.0279 C.3       1 <0>         0.1581
     14 H2          2.2753    0.2719   -0.6245 H         1 <0>         0.0889
     15 N1          1.1434    1.8996   -0.0119 N.am      1 <0>        -0.7178
     16 C13        -0.0144    1.2100    0.0087 C.2       1 <0>         0.5811
     17 O1          0.0022   -0.0041    0.0139 O.2       1 <0>        -0.5398
     18 C14        -1.3137    1.9368    0.0188 C.ar      1 <0>         0.2064
     19 C15        -2.5803    1.2083   -0.0951 C.ar      1 <0>        -0.2296
     20 C16        -2.6251   -0.1842   -0.2055 C.ar      1 <0>        -0.0413
     21 C17        -3.8334   -0.8140   -0.3039 C.ar      1 <0>        -0.2079
     22 C18        -5.0166   -0.0852   -0.2901 C.ar      1 <0>        -0.0753
     23 C19        -4.9972    1.2887   -0.1765 C.ar      1 <0>        -0.1578
     24 C20        -3.7806    1.9509   -0.0752 C.ar      1 <0>         0.2174
     25 N2         -3.7040    3.3219    0.0404 N.ar      1 <0>        -0.6506
     26 C21        -2.5057    3.9258    0.1358 C.ar      1 <0>         0.5874
     27 O2         -2.4707    5.1393    0.2360 O.3       1 <0>        -0.6007
     28 N3         -1.3501    3.2504    0.1249 N.ar      1 <0>        -0.5574
     29 H3          2.0791    3.3057   -5.6693 H         1 <0>         0.1176
     30 H4          2.4182    5.0939   -4.0108 H         1 <0>         0.1199
     31 H5          3.0699    4.5270   -1.7049 H         1 <0>         0.1212
     32 H6          3.0529    0.3843   -2.7186 H         1 <0>         0.1179
     33 H7          2.3911    0.9506   -5.0218 H         1 <0>         0.1181
     34 H8          4.7274    0.4037   -1.2639 H         1 <0>         0.0670
     35 H9          5.6031    1.9660   -1.1274 H         1 <0>         0.0676
     36 H10         6.1962    0.4374    0.7460 H         1 <0>         0.0632
     37 H11         5.3400    1.8975    1.3474 H         1 <0>         0.0637
     38 H12         4.0588   -0.8379    0.7988 H         1 <0>         0.0639
     39 H13         4.4539   -0.1681    2.4180 H         1 <0>         0.0635
     40 H14         2.0551    0.1929    1.8577 H         1 <0>         0.0712
     41 H15         2.9309    1.7553    1.9940 H         1 <0>         0.0660
     42 H16         1.1284    2.9995   -0.0167 H         1 <0>         0.4344
     43 H17        -1.7104   -0.7583   -0.2174 H         1 <0>         0.1456
     44 H18        -3.8695   -1.8896   -0.3936 H         1 <0>         0.1080
     45 H19        -5.9622   -0.6010   -0.3690 H         1 <0>         0.1103
     46 H20        -5.9221    1.8464   -0.1660 H         1 <0>         0.1185
@<TRIPOS>BOND
     1    1    6 ar
     2    1    2 ar
     3    1   29 1
     4    2    3 ar
     5    2   30 1
     6    3    4 ar
     7    3   31 1
     8    4    5 ar
     9    4    7 1
    10    5    6 ar
    11    5   32 1
    12    6   33 1
    13    7    8 1
    14    7   13 1
    15    7    9 1
    16    9   10 1
    17    9   34 1
    18    9   35 1
    19   10   11 1
    20   10   36 1
    21   10   37 1
    22   11   12 1
    23   11   38 1
    24   11   39 1
    25   12   13 1
    26   12   40 1
    27   12   41 1
    28   13   14 1
    29   13   15 1
    30   15   16 am
    31   15   42 1
    32   16   17 2
    33   16   18 1
    34   18   28 ar
    35   18   19 ar
    36   19   24 ar
    37   19   20 ar
    38   20   21 ar
    39   20   43 1
    40   21   22 ar
    41   21   44 1
    42   22   23 ar
    43   22   45 1
    44   23   24 ar
    45   23   46 1
    46   24   25 ar
    47   25   26 ar
    48   26   27 1
    49   26   28 ar
