@<TRIPOS>MOLECULE
ZINC05380112
   38    40     0     0     0
SMALL
USER_CHARGES

@<TRIPOS>ATOM
      1 C1         -0.0184    1.5028    0.0103 C.3       1 <0>        -0.1193
      2 C2          0.0021   -0.0041    0.0020 C.ar      1 <0>        -0.0721
      3 C3          0.0057   -0.6860   -1.2021 C.ar      1 <0>        -0.1245
      4 C4          0.0243   -2.0650   -1.2174 C.ar      1 <0>        -0.0785
      5 C5          0.0396   -2.7734   -0.0132 C.ar      1 <0>        -0.0481
      6 C6          0.0359   -2.0782    1.1986 C.ar      1 <0>        -0.0914
      7 C7          0.0229   -0.6990    1.1985 C.ar      1 <0>        -0.1233
      8 C8          0.0591   -4.2476   -0.0213 C.2       1 <0>         0.1232
      9 N1          0.0621   -4.8907   -1.1495 N.2       1 <0>        -0.2389
     10 N2          0.0807   -6.2916   -1.1572 N.pl3     1 <0>        -0.5648
     11 C9          0.0838   -6.9810   -2.3666 C.ar      1 <0>         0.2425
     12 C10         0.0746   -6.2904   -3.5605 C.ar      1 <0>        -0.1688
     13 C11         0.0782   -6.9676   -4.7756 C.ar      1 <0>        -0.0663
     14 C12         0.0904   -8.3292   -4.8195 C.ar      1 <0>        -0.1523
     15 C13         0.1001   -9.0687   -3.6259 C.ar      1 <0>        -0.0632
     16 C14         0.1025   -8.3938   -2.3809 C.ar      1 <0>         0.0854
     17 N3          0.1164   -9.0939   -1.2440 N.ar      1 <0>        -0.4762
     18 C15         0.1332  -10.4049   -1.2506 C.ar      1 <0>         0.1183
     19 C16         0.1380  -11.1313   -2.4394 C.ar      1 <0>        -0.1660
     20 C17         0.1124  -10.4767   -3.6379 C.ar      1 <0>        -0.0643
     21 C18         0.0756   -5.0081    1.2796 C.3       1 <0>        -0.1547
     22 H1          1.0042    1.8801    0.0026 H         1 <0>         0.0732
     23 H2         -0.5455    1.8639   -0.8728 H         1 <0>         0.0683
     24 H3         -0.5286    1.8543    0.9071 H         1 <0>         0.0682
     25 H4         -0.0066   -0.1370   -2.1321 H         1 <0>         0.1261
     26 H5          0.0267   -2.5960   -2.1578 H         1 <0>         0.1321
     27 H6          0.0476   -2.6193    2.1332 H         1 <0>         0.1292
     28 H7          0.0248   -0.1601    2.1344 H         1 <0>         0.1269
     29 H8          0.0913   -6.7811   -0.3198 H         1 <0>         0.4010
     30 H9          0.0641   -5.2104   -3.5519 H         1 <0>         0.1386
     31 H10         0.0708   -6.4056   -5.6978 H         1 <0>         0.1293
     32 H11         0.0923   -8.8393   -5.7714 H         1 <0>         0.1289
     33 H12         0.1441  -10.9355   -0.3100 H         1 <0>         0.1591
     34 H13         0.1527  -12.2109   -2.4132 H         1 <0>         0.1384
     35 H14         0.1147  -11.0237   -4.5692 H         1 <0>         0.1410
     36 H15        -0.9480   -5.2051    1.5983 H         1 <0>         0.0857
     37 H16         0.6013   -5.9529    1.1415 H         1 <0>         0.0693
     38 H17         0.5854   -4.4164    2.0399 H         1 <0>         0.0880
@<TRIPOS>BOND
     1    1    2 1
     2    1   22 1
     3    1   23 1
     4    1   24 1
     5    2    7 ar
     6    2    3 ar
     7    3    4 ar
     8    3   25 1
     9    4    5 ar
    10    4   26 1
    11    5    6 ar
    12    5    8 1
    13    6    7 ar
    14    6   27 1
    15    7   28 1
    16    8    9 2
    17    8   21 1
    18    9   10 1
    19   10   11 1
    20   10   29 1
    21   11   16 ar
    22   11   12 ar
    23   12   13 ar
    24   12   30 1
    25   13   14 ar
    26   13   31 1
    27   14   15 ar
    28   14   32 1
    29   15   20 ar
    30   15   16 ar
    31   16   17 ar
    32   17   18 ar
    33   18   19 ar
    34   18   33 1
    35   19   20 ar
    36   19   34 1
    37   20   35 1
    38   21   36 1
    39   21   37 1
    40   21   38 1
