@<TRIPOS>MOLECULE
ZINC06816267
   44    47     0     0     0
SMALL
USER_CHARGES
(3S)-3-(1-benzylindol-3-yl)-3-(3-thienyl)propanoic acid
@<TRIPOS>ATOM
      1 C1         -2.3257    6.0884   -3.9554 C.ar      1 <0>        -0.1139
      2 C2         -3.1437    5.1174   -3.4085 C.ar      1 <0>        -0.1186
      3 C3         -2.9284    4.6807   -2.1148 C.ar      1 <0>        -0.0970
      4 C4         -1.8952    5.2150   -1.3678 C.ar      1 <0>        -0.1120
      5 C5         -1.0804    6.1896   -1.9129 C.ar      1 <0>        -0.0987
      6 C6         -1.2924    6.6226   -3.2085 C.ar      1 <0>        -0.1218
      7 C7         -1.6608    4.7392    0.0427 C.3       1 <0>         0.1578
      8 N1         -0.7359    3.6032    0.0276 N.pl3     1 <0>        -0.4815
      9 C8         -1.1081    2.2865    0.0190 C.2       1 <0>         0.0302
     10 C9         -0.0184    1.5028    0.0103 C.2       1 <0>        -0.0998
     11 C10         1.1472    2.3901    0.0039 C.ar      1 <0>        -0.0697
     12 C11         0.6375    3.7015    0.0153 C.ar      1 <0>         0.1017
     13 C12         1.5208    4.7758    0.0121 C.ar      1 <0>        -0.1399
     14 C13         2.8791    4.5449   -0.0021 C.ar      1 <0>        -0.1053
     15 C14         3.3769    3.2494   -0.0133 C.ar      1 <0>        -0.1629
     16 C15         2.5270    2.1792   -0.0100 C.ar      1 <0>        -0.0393
     17 C16         0.0021   -0.0041    0.0020 C.3       1 <0>         0.0520
     18 H1          1.0345   -0.3534   -0.0097 H         1 <0>         0.0835
     19 C17        -0.7241   -0.5171   -1.2431 C.3       1 <0>        -0.1435
     20 C18         0.0370   -0.1013   -2.4756 C.2       1 <0>         0.4604
     21 O1          1.0557    0.5396   -2.3690 O.co2     1 <0>        -0.6208
     22 C19        -0.6897   -0.5226    1.2364 C.2       1 <0>        -0.0963
     23 C20        -0.0084   -1.3137    2.1422 C.2       1 <0>        -0.1401
     24 C21        -0.6600   -1.7638    3.2423 C.2       1 <0>        -0.1797
     25 S1         -2.2875   -1.0649    3.0192 S.3       1 <0>        -0.0034
     26 C22        -1.9877   -0.2156    1.4777 C.2       1 <0>        -0.1664
     27 H2         -2.4940    6.4298   -4.9661 H         1 <0>         0.1211
     28 H3         -3.9512    4.7003   -3.9920 H         1 <0>         0.1230
     29 H4         -3.5678    3.9224   -1.6874 H         1 <0>         0.1202
     30 H5         -0.2759    6.6102   -1.3278 H         1 <0>         0.1196
     31 H6         -0.6535    7.3814   -3.6356 H         1 <0>         0.1214
     32 H7         -2.6084    4.4304    0.4842 H         1 <0>         0.0928
     33 H8         -1.2319    5.5491    0.6328 H         1 <0>         0.0887
     34 H9         -2.1278    1.9305    0.0216 H         1 <0>         0.1539
     35 H10         1.1432    5.7876    0.0204 H         1 <0>         0.1074
     36 H11         3.5633    5.3805   -0.0042 H         1 <0>         0.1148
     37 H12         4.4444    3.0858   -0.0240 H         1 <0>         0.1136
     38 H13         2.9216    1.1739   -0.0184 H         1 <0>         0.1170
     39 H14        -0.7871   -1.6046   -1.2047 H         1 <0>         0.0632
     40 H15        -1.7288   -0.0959   -1.2772 H         1 <0>         0.0596
     41 H16         1.0278   -1.5691    1.9762 H         1 <0>         0.1328
     42 H17        -0.2904   -2.3840    4.0456 H         1 <0>         0.1810
     43 H18        -2.6650    0.3858    0.8896 H         1 <0>         0.1784
     44 O2         -0.4168   -0.4430   -3.6917 O.co2     1 <0>        -0.7835
@<TRIPOS>BOND
     1    1    6 ar
     2    1    2 ar
     3    1   27 1
     4    2    3 ar
     5    2   28 1
     6    3    4 ar
     7    3   29 1
     8    4    5 ar
     9    4    7 1
    10    5    6 ar
    11    5   30 1
    12    6   31 1
    13    7    8 1
    14    7   32 1
    15    7   33 1
    16    8   12 1
    17    8    9 1
    18    9   10 2
    19    9   34 1
    20   10   11 1
    21   10   17 1
    22   11   16 ar
    23   11   12 ar
    24   12   13 ar
    25   13   14 ar
    26   13   35 1
    27   14   15 ar
    28   14   36 1
    29   15   16 ar
    30   15   37 1
    31   16   38 1
    32   17   18 1
    33   17   19 1
    34   17   22 1
    35   19   20 1
    36   19   39 1
    37   19   40 1
    38   20   21 2
    39   20   44 1
    40   22   26 2
    41   22   23 1
    42   23   24 2
    43   23   41 1
    44   24   25 1
    45   24   42 1
    46   25   26 1
    47   26   43 1
