@<TRIPOS>MOLECULE
ZINC05187896
   54    56     0     0     0
SMALL
USER_CHARGES
1-[1-(3,4-dimethylphenyl)-5-oxo-pyrrolidin-3-yl]-3-(2-methylcyclohexyl)-urea
@<TRIPOS>ATOM
      1 C1         -8.9622   -0.1991    0.9680 C.3       1 <0>        -0.1157
      2 C2         -7.5385    0.1581    0.6264 C.ar      1 <0>        -0.1106
      3 C3         -6.4994   -0.3424    1.3895 C.ar      1 <0>        -0.0891
      4 C4         -5.1938   -0.0170    1.0791 C.ar      1 <0>        -0.1594
      5 C5         -4.9247    0.8140   -0.0008 C.ar      1 <0>         0.1605
      6 C6         -5.9705    1.3195   -0.7615 C.ar      1 <0>        -0.1518
      7 C7         -7.2741    0.9859   -0.4490 C.ar      1 <0>        -0.0574
      8 C8         -8.4094    1.5295   -1.2775 C.3       1 <0>        -0.1195
      9 N1         -3.6028    1.1456   -0.3180 N.am      1 <0>        -0.5573
     10 C9         -2.4378    0.7710    0.4921 C.3       1 <0>         0.0929
     11 C10        -1.2924    1.6926    0.0178 C.3       1 <0>         0.1602
     12 H1         -1.2376    2.5936    0.6287 H         1 <0>         0.1169
     13 C11        -1.7349    2.0284   -1.4252 C.3       1 <0>        -0.1662
     14 C12        -3.2368    1.8479   -1.4042 C.2       1 <0>         0.5205
     15 O1         -3.9996    2.2741   -2.2453 O.2       1 <0>        -0.5022
     16 N2         -0.0116    0.9813    0.0213 N.am      1 <0>        -0.7389
     17 C13         1.1441    1.6745    0.0087 C.2       1 <0>         0.7075
     18 O2          1.1239    2.8902   -0.0004 O.2       1 <0>        -0.5821
     19 N3          2.3224    1.0202    0.0063 N.am      1 <0>        -0.7331
     20 C14         3.5787    1.7736   -0.0073 C.3       1 <0>         0.1700
     21 H2          3.4610    2.6869    0.5759 H         1 <0>         0.0897
     22 C15         3.9424    2.1328   -1.4494 C.3       1 <0>        -0.1331
     23 C16         4.1076    0.8508   -2.2681 C.3       1 <0>        -0.1171
     24 C17         5.2212   -0.0034   -1.6589 C.3       1 <0>        -0.1223
     25 C18         4.8576   -0.3625   -0.2168 C.3       1 <0>        -0.1146
     26 C19         4.6923    0.9195    0.6019 C.3       1 <0>        -0.1002
     27 H3          5.6271    1.4801    0.5917 H         1 <0>         0.0870
     28 C20         4.3287    0.5603    2.0440 C.3       1 <0>        -0.1472
     29 H4         -9.3632    0.5349    1.6670 H         1 <0>         0.0696
     30 H5         -9.5641   -0.2021    0.0593 H         1 <0>         0.0700
     31 H6         -8.9889   -1.1883    1.4248 H         1 <0>         0.0646
     32 H7         -6.7092   -0.9888    2.2289 H         1 <0>         0.1267
     33 H8         -4.3827   -0.4085    1.6752 H         1 <0>         0.1241
     34 H9         -5.7648    1.9697   -1.5989 H         1 <0>         0.1547
     35 H10        -8.7408    2.4805   -0.8603 H         1 <0>         0.0732
     36 H11        -8.0713    1.6807   -2.3026 H         1 <0>         0.0681
     37 H12        -9.2374    0.8207   -1.2688 H         1 <0>         0.0726
     38 H13        -2.1780   -0.2734    0.3189 H         1 <0>         0.0862
     39 H14        -2.6438    0.9388    1.5492 H         1 <0>         0.0979
     40 H15        -1.4780    3.0582   -1.6732 H         1 <0>         0.1159
     41 H16        -1.2759    1.3402   -2.1350 H         1 <0>         0.1132
     42 H17         0.0045    0.0115    0.0286 H         1 <0>         0.3988
     43 H18         2.3386    0.0503    0.0136 H         1 <0>         0.3948
     44 H19         3.1490    2.7413   -1.8834 H         1 <0>         0.0693
     45 H20         4.8771    2.6934   -1.4596 H         1 <0>         0.0722
     46 H21         3.1729    0.2902   -2.2579 H         1 <0>         0.0594
     47 H22         4.3667    1.1067   -3.2955 H         1 <0>         0.0615
     48 H23         5.3389   -0.9167   -2.2421 H         1 <0>         0.0624
     49 H24         6.1560    0.5572   -1.6691 H         1 <0>         0.0642
     50 H25         3.9228   -0.9231   -0.2066 H         1 <0>         0.0581
     51 H26         5.6509   -0.9710    0.2172 H         1 <0>         0.0669
     52 H27         3.3940   -0.0003    2.0541 H         1 <0>         0.0539
     53 H28         5.1221   -0.0482    2.4780 H         1 <0>         0.0575
     54 H29         4.2110    1.4736    2.6272 H         1 <0>         0.0570
@<TRIPOS>BOND
     1    1    2 1
     2    1   29 1
     3    1   30 1
     4    1   31 1
     5    2    7 ar
     6    2    3 ar
     7    3    4 ar
     8    3   32 1
     9    4    5 ar
    10    4   33 1
    11    5    6 ar
    12    5    9 1
    13    6    7 ar
    14    6   34 1
    15    7    8 1
    16    8   35 1
    17    8   36 1
    18    8   37 1
    19    9   14 am
    20    9   10 1
    21   10   11 1
    22   10   38 1
    23   10   39 1
    24   11   12 1
    25   11   13 1
    26   11   16 1
    27   13   14 1
    28   13   40 1
    29   13   41 1
    30   14   15 2
    31   16   17 am
    32   16   42 1
    33   17   18 2
    34   17   19 am
    35   19   20 1
    36   19   43 1
    37   20   21 1
    38   20   26 1
    39   20   22 1
    40   22   23 1
    41   22   44 1
    42   22   45 1
    43   23   24 1
    44   23   46 1
    45   23   47 1
    46   24   25 1
    47   24   48 1
    48   24   49 1
    49   25   26 1
    50   25   50 1
    51   25   51 1
    52   26   27 1
    53   26   28 1
    54   28   52 1
    55   28   53 1
    56   28   54 1
