@<TRIPOS>MOLECULE
ZINC43577860
   34    36     0     0     0
SMALL
USER_CHARGES

@<TRIPOS>ATOM
      1 C1         -0.0167    1.3784    0.0096 C.ar      1 <0>        -0.0767
      2 C2          1.1691    2.0872    0.0021 C.ar      1 <0>        -0.1454
      3 C3          2.3804    1.4092   -0.0130 C.ar      1 <0>         0.1660
      4 C4          2.3956    0.0204   -0.0204 C.ar      1 <0>        -0.1188
      5 C5          1.2075   -0.6825   -0.0128 C.ar      1 <0>        -0.0673
      6 C6          0.0021   -0.0041    0.0020 C.ar      1 <0>        -0.1374
      7 C7         -1.2936   -0.7736    0.0106 C.3       1 <0>         0.1937
      8 H1         -1.1262   -1.7622    0.4380 H         1 <0>         0.1235
      9 C8         -1.8027   -0.9160   -1.4006 C.ar      1 <0>        -0.0681
     10 C9         -2.4652    0.1361   -2.0056 C.ar      1 <0>        -0.1159
     11 C10        -2.9328    0.0073   -3.2998 C.ar      1 <0>        -0.0562
     12 C11        -2.7387   -1.1747   -3.9911 C.ar      1 <0>        -0.1320
     13 C12        -2.0751   -2.2292   -3.3856 C.ar      1 <0>         0.1332
     14 C13        -1.6021   -2.0960   -2.0912 C.ar      1 <0>        -0.1362
     15 F1         -1.8852   -3.3847   -4.0594 F         1 <0>        -0.1207
     16 Br1        -3.3795   -1.3516   -5.7614 Br        1 <0>        -0.0237
     17 O1         -2.2590   -0.0720    0.7967 O.3       1 <0>        -0.5404
     18 C14         3.7105   -0.7149   -0.0364 C.3       1 <0>        -0.0788
     19 C15         4.7328    0.0837   -0.8459 C.3       1 <0>        -0.1395
     20 C16         4.7274    1.5217   -0.4023 C.2       1 <0>         0.5208
     21 O2          5.7657    2.1485   -0.3885 O.2       1 <0>        -0.5224
     22 N1          3.5842    2.1202   -0.0203 N.am      1 <0>        -0.6650
     23 H2         -0.9595    1.9048    0.0260 H         1 <0>         0.1268
     24 H3          1.1537    3.1671    0.0076 H         1 <0>         0.1326
     25 H4          1.2191   -1.7624   -0.0188 H         1 <0>         0.1330
     26 H5         -2.6177    1.0592   -1.4662 H         1 <0>         0.1360
     27 H6         -3.4501    0.8298   -3.7713 H         1 <0>         0.1459
     28 H7         -1.0807   -2.9159   -1.6196 H         1 <0>         0.1477
     29 H8         -2.4576    0.8176    0.4739 H         1 <0>         0.3750
     30 H9          4.0710   -0.8363    0.9851 H         1 <0>         0.0862
     31 H10         3.5727   -1.6956   -0.4917 H         1 <0>         0.0943
     32 H11         5.7258   -0.3388   -0.6925 H         1 <0>         0.1120
     33 H12         4.4777    0.0304   -1.9043 H         1 <0>         0.1052
     34 H13         3.5953    3.0515    0.2510 H         1 <0>         0.4124
@<TRIPOS>BOND
     1    1    6 ar
     2    1    2 ar
     3    1   23 1
     4    2    3 ar
     5    2   24 1
     6    3   22 1
     7    3    4 ar
     8    4    5 ar
     9    4   18 1
    10    5    6 ar
    11    5   25 1
    12    6    7 1
    13    7    8 1
    14    7    9 1
    15    7   17 1
    16    9   14 ar
    17    9   10 ar
    18   10   11 ar
    19   10   26 1
    20   11   12 ar
    21   11   27 1
    22   12   13 ar
    23   12   16 1
    24   13   14 ar
    25   13   15 1
    26   14   28 1
    27   17   29 1
    28   18   19 1
    29   18   30 1
    30   18   31 1
    31   19   20 1
    32   19   32 1
    33   19   33 1
    34   20   21 2
    35   20   22 am
    36   22   34 1
