@<TRIPOS>MOLECULE
ZINC48561095
   29    30     0     0     0
SMALL
USER_CHARGES

@<TRIPOS>ATOM
      1 C1         -0.0178    1.4608    0.0101 C.3       1 <0>         0.1109
      2 N1          0.0021   -0.0041    0.0020 N.pl3     1 <0>        -0.6722
      3 C2          0.0241   -0.7433    1.2666 C.3       1 <0>         0.2245
      4 C3         -1.3889   -1.0161    1.7137 C.2       1 <0>        -0.1603
      5 C4         -2.1800   -2.0823    1.4399 C.2       1 <0>        -0.1250
      6 C5         -3.4588   -2.1205    1.9643 C.2       1 <0>        -0.1190
      7 C6         -3.8834   -1.0902    2.7367 C.2       1 <0>        -0.1400
      8 S1         -2.4524   -0.0227    2.7477 S.3       1 <0>         0.0847
      9 Br1        -4.5986   -3.5870    1.6090 Br        1 <0>        -0.0354
     10 C7         -0.0000   -0.6967   -1.2128 C.ar      1 <0>         0.1856
     11 C8          1.2002   -1.0300   -1.8258 C.ar      1 <0>        -0.0936
     12 C9          1.1950   -1.7147   -3.0257 C.ar      1 <0>        -0.0580
     13 C10        -0.0036   -2.0687   -3.6173 C.ar      1 <0>        -0.0241
     14 C11        -1.2018   -1.7386   -3.0109 C.ar      1 <0>        -0.0912
     15 C12        -1.2044   -1.0584   -1.8070 C.ar      1 <0>         0.1004
     16 F1         -2.3748   -0.7407   -1.2118 F         1 <0>        -0.1102
     17 N2         -0.0042   -2.8022   -4.9028 N.pl3     1 <0>         0.0313
     18 O1          1.0425   -3.0911   -5.4344 O.2       1 <0>        -0.1464
     19 O2         -1.0514   -3.1124   -5.4213 O.3       1 <0>        -0.1505
     20 H1          1.0048    1.8381    0.0023 H         1 <0>         0.0505
     21 H2         -0.5450    1.8219   -0.8730 H         1 <0>         0.0594
     22 H3         -0.5280    1.8123    0.9069 H         1 <0>         0.0668
     23 H4          0.5496   -1.6879    1.1262 H         1 <0>         0.0951
     24 H5          0.5371   -0.1514    2.0246 H         1 <0>         0.0975
     25 H6         -1.8170   -2.8896    0.8212 H         1 <0>         0.1347
     26 H7         -4.8378   -0.9531    3.2231 H         1 <0>         0.1954
     27 H8          2.1372   -0.7540   -1.3652 H         1 <0>         0.1601
     28 H9          2.1288   -1.9737   -3.5027 H         1 <0>         0.1631
     29 H10        -2.1363   -2.0159   -3.4760 H         1 <0>         0.1661
@<TRIPOS>BOND
     1    1    2 1
     2    1   20 1
     3    1   21 1
     4    1   22 1
     5    2    3 1
     6    2   10 1
     7    3    4 1
     8    3   23 1
     9    3   24 1
    10    4    8 1
    11    4    5 2
    12    5    6 1
    13    5   25 1
    14    6    7 2
    15    6    9 1
    16    7    8 1
    17    7   26 1
    18   10   15 ar
    19   10   11 ar
    20   11   12 ar
    21   11   27 1
    22   12   13 ar
    23   12   28 1
    24   13   14 ar
    25   13   17 1
    26   14   15 ar
    27   14   29 1
    28   15   16 1
    29   17   18 2
    30   17   19 1
