@<TRIPOS>MOLECULE
ZINC35288277
   47    48     0     0     0
SMALL
USER_CHARGES

@<TRIPOS>ATOM
      1 C1         -0.0184    1.5028    0.0103 C.3       1 <0>        -0.1104
      2 C2          0.0021   -0.0041    0.0020 C.ar      1 <0>        -0.0889
      3 C3          0.0057   -0.6888   -1.1991 C.ar      1 <0>        -0.1262
      4 C4          0.0245   -2.0707   -1.2067 C.ar      1 <0>        -0.0961
      5 C5          0.0400   -2.7685   -0.0132 C.ar      1 <0>        -0.0530
      6 C6          0.0373   -2.0840    1.1875 C.ar      1 <0>        -0.0561
      7 C7          0.0229   -0.7015    1.1951 C.ar      1 <0>        -0.1198
      8 C8          0.0538   -2.8445    2.4885 C.3       1 <0>        -0.1146
      9 C9          0.0595   -4.2753   -0.0215 C.3       1 <0>        -0.0343
     10 C10        -1.3486   -4.7966    0.1074 C.2       1 <0>         0.3792
     11 N1         -1.5568   -6.1279    0.1266 N.am      1 <0>        -0.6542
     12 C11        -2.8087   -6.6184    0.2416 C.2       1 <0>         0.5264
     13 C12        -3.8797   -5.7165    0.3398 C.2       1 <0>        -0.4580
     14 C13        -3.6045   -4.3627    0.3144 C.2       1 <0>         0.4540
     15 N2         -2.3349   -3.9472    0.2028 N.2       1 <0>        -0.5422
     16 O1         -4.6100   -3.4618    0.4066 O.3       1 <0>        -0.6679
     17 C14        -5.2966   -6.2130    0.4695 C.3       1 <0>         0.0210
     18 C15        -5.8659   -6.4995   -0.9215 C.3       1 <0>        -0.0548
     19 S1         -7.5715   -7.0972   -0.7654 S.3       1 <0>        -0.2781
     20 C16        -8.0937   -7.3863   -2.4784 C.3       1 <0>        -0.0540
     21 C17        -9.5131   -7.8924   -2.4923 C.2       1 <0>        -0.1035
     22 C18       -10.4888   -7.0964   -2.8536 C.2       1 <0>        -0.1838
     23 C19        -9.8101   -9.3141   -2.0905 C.3       1 <0>        -0.1157
     24 O2         -3.0059   -7.8228    0.2594 O.2       1 <0>        -0.6040
     25 H1          1.0042    1.8801    0.0026 H         1 <0>         0.0642
     26 H2         -0.5455    1.8639   -0.8728 H         1 <0>         0.0628
     27 H3         -0.5286    1.8543    0.9071 H         1 <0>         0.0630
     28 H4         -0.0064   -0.1437   -2.1314 H         1 <0>         0.1152
     29 H5          0.0266   -2.6056   -2.1449 H         1 <0>         0.1161
     30 H6          0.0246   -0.1666    2.1333 H         1 <0>         0.1157
     31 H7          1.0853   -3.0146    2.7969 H         1 <0>         0.0651
     32 H8         -0.4637   -2.2663    3.2539 H         1 <0>         0.0646
     33 H9         -0.4484   -3.8028    2.3555 H         1 <0>         0.0663
     34 H10         0.4932   -4.6279   -0.9572 H         1 <0>         0.0957
     35 H11         0.6582   -4.6356    0.8151 H         1 <0>         0.0975
     36 H12        -5.3083   -7.1276    1.0623 H         1 <0>         0.0505
     37 H13        -5.9042   -5.4534    0.9614 H         1 <0>         0.0656
     38 H14        -5.8542   -5.5849   -1.5143 H         1 <0>         0.0712
     39 H15        -5.2583   -7.2591   -1.4134 H         1 <0>         0.0690
     40 H16        -8.0352   -6.4530   -3.0385 H         1 <0>         0.0809
     41 H17        -7.4393   -8.1272   -2.9376 H         1 <0>         0.0823
     42 H18       -10.2759   -6.0775   -3.1415 H         1 <0>         0.0988
     43 H19       -11.5060   -7.4591   -2.8635 H         1 <0>         0.1005
     44 H20        -9.9982   -9.3568   -1.0178 H         1 <0>         0.0719
     45 H21       -10.6901   -9.6673   -2.6281 H         1 <0>         0.0612
     46 H22        -8.9568   -9.9467   -2.3352 H         1 <0>         0.0636
     47 H23        -0.8040   -6.7357    0.0572 H         1 <0>         0.3933
@<TRIPOS>BOND
     1    1    2 1
     2    1   25 1
     3    1   26 1
     4    1   27 1
     5    2    7 ar
     6    2    3 ar
     7    3    4 ar
     8    3   28 1
     9    4    5 ar
    10    4   29 1
    11    5    6 ar
    12    5    9 1
    13    6    7 ar
    14    6    8 1
    15    7   30 1
    16    8   31 1
    17    8   32 1
    18    8   33 1
    19    9   34 1
    20    9   35 1
    21    9   10 1
    22   10   15 2
    23   10   11 1
    24   11   47 1
    25   11   12 am
    26   12   24 2
    27   12   13 1
    28   13   17 1
    29   13   14 2
    30   14   16 1
    31   14   15 1
    32   17   18 1
    33   17   36 1
    34   17   37 1
    35   18   19 1
    36   18   38 1
    37   18   39 1
    38   19   20 1
    39   20   21 1
    40   20   40 1
    41   20   41 1
    42   21   22 2
    43   21   23 1
    44   22   42 1
    45   22   43 1
    46   23   44 1
    47   23   45 1
    48   23   46 1
