@<TRIPOS>MOLECULE
ZINC39512604
   39    40     0     0     0
SMALL
USER_CHARGES

@<TRIPOS>ATOM
      1 C1         -0.0583    1.5412    0.2700 C.3       1 <0>        -0.1457
      2 C2         -0.0187    0.0120    0.2388 C.3       1 <0>        -0.5696
      3 C3          0.5561   -0.5103    1.5570 C.3       1 <0>        -0.1517
      4 S1         -1.6997   -0.6320    0.0149 S.o2      1 <0>         2.4078
      5 O1         -2.4975   -0.1953    1.1068 O.2       1 <0>        -0.9199
      6 O2         -2.1210   -0.3377   -1.3099 O.2       1 <0>        -0.9256
      7 C4         -1.4643   -2.4250    0.1572 C.3       1 <0>        -0.5641
      8 H1         -0.9262   -2.6494    1.0782 H         1 <0>         0.1560
      9 C5         -0.6581   -2.9317   -1.0426 C.3       1 <0>        -0.1195
     10 C6         -0.5276   -4.4547   -0.9519 C.3       1 <0>        -0.1055
     11 C7         -1.9229   -5.0818   -0.9124 C.3       1 <0>         0.0234
     12 N1         -2.6574   -4.5714    0.2530 N.3       1 <0>        -0.3356
     13 C8         -2.8253   -3.1178    0.1801 C.3       1 <0>         0.1170
     14 C9         -3.6465   -2.6205    1.3792 C.3       1 <0>        -0.1461
     15 C10        -4.9165   -1.9634    0.7984 C.3       1 <0>        -0.1248
     16 C11        -4.5130   -1.5647   -0.6431 C.3       1 <0>        -0.0232
     17 H2         -3.9485   -0.6323   -0.6422 H         1 <0>         0.1122
     18 C12        -3.6173   -2.7482   -1.0881 C.3       1 <0>        -0.1851
     19 Cl1        -5.9681   -1.4267   -1.6987 Cl        1 <0>        -0.1625
     20 Cl2        -4.1684   -5.3552    0.4164 Cl        1 <0>        -0.0615
     21 H3          0.9518    1.9281    0.4046 H         1 <0>         0.0869
     22 H4         -0.4678    1.9132   -0.6691 H         1 <0>         0.0736
     23 H5         -0.6871    1.8716    1.0968 H         1 <0>         0.0776
     24 H6          0.6100   -0.3184   -0.5880 H         1 <0>         0.1390
     25 H7          0.5843   -1.5997    1.5348 H         1 <0>         0.0719
     26 H8          1.5662   -0.1233    1.6916 H         1 <0>         0.0853
     27 H9         -0.0727   -0.1799    2.3838 H         1 <0>         0.0804
     28 H10        -1.1719   -2.6644   -1.9660 H         1 <0>         0.0912
     29 H11         0.3337   -2.4798   -1.0323 H         1 <0>         0.0877
     30 H12         0.0134   -4.8259   -1.8223 H         1 <0>         0.0904
     31 H13         0.0160   -4.7197   -0.0451 H         1 <0>         0.0845
     32 H14        -2.4629   -4.8240   -1.8235 H         1 <0>         0.0597
     33 H15        -1.8321   -6.1655   -0.8385 H         1 <0>         0.1002
     34 H16        -3.9191   -3.4596    2.0192 H         1 <0>         0.1014
     35 H17        -3.0729   -1.8878    1.9469 H         1 <0>         0.1098
     36 H18        -5.7407   -2.6765    0.7804 H         1 <0>         0.0842
     37 H19        -5.1876   -1.0802    1.3767 H         1 <0>         0.0935
     38 H20        -2.9404   -2.4366   -1.8836 H         1 <0>         0.1048
     39 H21        -4.2297   -3.5888   -1.4141 H         1 <0>         0.1020
@<TRIPOS>BOND
     1    1    2 1
     2    1   21 1
     3    1   22 1
     4    1   23 1
     5    2    3 1
     6    2    4 1
     7    2   24 1
     8    3   25 1
     9    3   26 1
    10    3   27 1
    11    4    5 2
    12    4    6 2
    13    4    7 1
    14    7    8 1
    15    7   13 1
    16    7    9 1
    17    9   10 1
    18    9   28 1
    19    9   29 1
    20   10   11 1
    21   10   30 1
    22   10   31 1
    23   11   12 1
    24   11   32 1
    25   11   33 1
    26   12   13 1
    27   12   20 1
    28   13   18 1
    29   13   14 1
    30   14   15 1
    31   14   34 1
    32   14   35 1
    33   15   16 1
    34   15   36 1
    35   15   37 1
    36   16   17 1
    37   16   18 1
    38   16   19 1
    39   18   38 1
    40   18   39 1
