@<TRIPOS>MOLECULE
ZINC42813801
   35    37     0     0     0
SMALL
USER_CHARGES

@<TRIPOS>ATOM
      1 C1         -0.0168    1.3869    0.0097 C.ar      1 <0>        -0.1171
      2 C2          1.1773    2.0850    0.0020 C.ar      1 <0>        -0.0796
      3 C3          2.3668    1.3976   -0.0130 C.ar      1 <0>        -0.1582
      4 C4          2.4285   -0.0135   -0.0212 C.ar      1 <0>         0.0374
      5 C5          1.1946   -0.7050   -0.0127 C.ar      1 <0>         0.2146
      6 C6          0.0021   -0.0041    0.0020 C.ar      1 <0>         0.1445
      7 N1         -1.2115   -0.7095    0.0103 N.pl3     1 <0>        -0.7460
      8 C7         -2.4822    0.0193    0.0268 C.3       1 <0>         0.1395
      9 C8         -3.6422   -0.9784    0.0330 C.3       1 <0>         0.0791
     10 H1         -3.5740   -1.6097    0.9189 H         1 <0>         0.0635
     11 C9         -4.9703   -0.2170    0.0497 C.3       1 <0>        -0.1484
     12 C10        -6.1260   -1.2208   -0.0050 C.3       1 <0>        -0.1227
     13 C11        -5.9716   -2.0930   -1.2548 C.3       1 <0>        -0.1584
     14 C12        -4.6048   -2.7818   -1.2211 C.3       1 <0>         0.0603
     15 O1         -3.5762   -1.7932   -1.1391 O.3       1 <0>        -0.3750
     16 N2          1.1802   -2.1056   -0.0201 N.pl3     1 <0>        -0.8646
     17 N3          3.6892   -0.4952   -0.0362 N.2       1 <0>        -0.5028
     18 C13         4.7291    0.2859   -0.0423 C.2       1 <0>         0.0618
     19 S1          4.0848    1.8406   -0.0276 S.3       1 <0>         0.0646
     20 H2         -0.9571    1.9180    0.0260 H         1 <0>         0.1366
     21 H3          1.1746    3.1650    0.0075 H         1 <0>         0.1323
     22 H4         -1.2086   -1.6795    0.0051 H         1 <0>         0.3964
     23 H5         -2.5329    0.6410    0.9207 H         1 <0>         0.0741
     24 H6         -2.5506    0.6505   -0.8592 H         1 <0>         0.0681
     25 H7         -5.0416    0.3710    0.9647 H         1 <0>         0.0774
     26 H8         -5.0216    0.4449   -0.8147 H         1 <0>         0.0763
     27 H9         -6.1042   -1.8508    0.8842 H         1 <0>         0.0641
     28 H10        -7.0735   -0.6839   -0.0499 H         1 <0>         0.0710
     29 H11        -6.7589   -2.8465   -1.2727 H         1 <0>         0.0745
     30 H12        -6.0431   -1.4689   -2.1456 H         1 <0>         0.0728
     31 H13        -4.5493   -3.4369   -0.3517 H         1 <0>         0.0500
     32 H14        -4.4719   -3.3703   -2.1289 H         1 <0>         0.0953
     33 H15         2.0151   -2.5992   -0.0310 H         1 <0>         0.4079
     34 H16         0.3352   -2.5819   -0.0143 H         1 <0>         0.3931
     35 H17         5.7709    0.0011   -0.0541 H         1 <0>         0.2179
@<TRIPOS>BOND
     1    1    6 ar
     2    1    2 ar
     3    1   20 1
     4    2    3 ar
     5    2   21 1
     6    3   19 1
     7    3    4 ar
     8    4    5 ar
     9    4   17 1
    10    5    6 ar
    11    5   16 1
    12    6    7 1
    13    7    8 1
    14    7   22 1
    15    8    9 1
    16    8   23 1
    17    8   24 1
    18    9   10 1
    19    9   15 1
    20    9   11 1
    21   11   12 1
    22   11   25 1
    23   11   26 1
    24   12   13 1
    25   12   27 1
    26   12   28 1
    27   13   14 1
    28   13   29 1
    29   13   30 1
    30   14   15 1
    31   14   31 1
    32   14   32 1
    33   16   33 1
    34   16   34 1
    35   17   18 2
    36   18   19 1
    37   18   35 1
