@<TRIPOS>MOLECULE
ZINC35895356
   45    48     0     0     0
SMALL
USER_CHARGES

@<TRIPOS>ATOM
      1 C1         -1.3310    0.6048    0.1884 C.3       1 <0>        -0.0054
      2 N1         -1.1524   -0.8300    0.4485 N.3       1 <0>        -0.4880
      3 C2         -2.3374   -1.3967    1.1477 C.3       1 <0>         0.0844
      4 H1         -3.1981   -1.5263    0.4915 H         1 <0>         0.1114
      5 C3         -1.8091   -2.7352    1.7303 C.3       1 <0>        -0.1152
      6 C4         -0.3075   -2.4754    1.9752 C.3       1 <0>        -0.1487
      7 C5         -0.0468   -1.0629    1.4189 C.3       1 <0>         0.0366
      8 H2          0.9265   -1.0037    0.9319 H         1 <0>         0.1283
      9 C6         -0.1913   -0.0229    2.5259 C.3       1 <0>        -0.0630
     10 H3          0.1095    0.9427    2.1196 H         1 <0>         0.1090
     11 C7          0.7121   -0.3346    3.7061 C.3       1 <0>        -0.0286
     12 H4          1.4114    0.4904    3.8417 H         1 <0>         0.1297
     13 C8         -0.0626   -0.5399    4.9996 C.3       1 <0>         0.2083
     14 C9         -1.0505    0.5760    5.2389 C.2       1 <0>         0.2428
     15 C10        -1.8859    0.9011    4.1900 C.2       1 <0>        -0.1394
     16 C11        -1.6232    0.0895    2.9716 C.2       1 <0>        -0.0737
     17 C12        -2.6291   -0.4985    2.3351 C.2       1 <0>        -0.1373
     18 C13        -2.9028    1.9055    4.2768 C.1       1 <0>         0.2702
     19 N2         -3.7096    2.7023    4.3456 N.1       1 <0>        -0.4225
     20 N3         -1.1147    1.2319    6.4361 N.pl3     1 <0>        -0.8281
     21 C14         0.8855   -0.5919    6.1244 C.1       1 <0>         0.1838
     22 N4          1.6171   -0.6319    6.9925 N.1       1 <0>        -0.3419
     23 C15        -0.7895   -1.8179    4.9267 C.1       1 <0>         0.2116
     24 N5         -1.3505   -2.8041    4.8704 N.1       1 <0>        -0.3508
     25 C16         1.4921   -1.5882    3.4042 C.ar      1 <0>        -0.0419
     26 C17         1.3256   -2.7125    4.1912 C.ar      1 <0>        -0.1501
     27 C18         2.0406   -3.8624    3.9141 C.ar      1 <0>        -0.0832
     28 C19         2.9227   -3.8889    2.8497 C.ar      1 <0>        -0.1096
     29 C20         3.0898   -2.7656    2.0624 C.ar      1 <0>        -0.0734
     30 C21         2.3704   -1.6159    2.3362 C.ar      1 <0>        -0.0919
     31 Br1         2.5934   -0.0807    1.2549 Br        1 <0>        -0.0201
     32 H5         -0.4104    1.0164   -0.2253 H         1 <0>         0.0690
     33 H6         -2.1444    0.7465   -0.5233 H         1 <0>         0.0692
     34 H7         -1.5708    1.1160    1.1207 H         1 <0>         0.0482
     35 H8         -2.3137   -2.9686    2.6678 H         1 <0>         0.0745
     36 H9         -1.9442   -3.5436    1.0117 H         1 <0>         0.0736
     37 H10        -0.0870   -2.5083    3.0422 H         1 <0>         0.0939
     38 H11         0.2954   -3.2096    1.4408 H         1 <0>         0.0717
     39 H12        -3.6466   -0.3624    2.6707 H         1 <0>         0.1216
     40 H13        -0.5161    0.9837    7.1579 H         1 <0>         0.4067
     41 H14        -1.7589    1.9458    6.5641 H         1 <0>         0.4179
     42 H15         0.6370   -2.6921    5.0230 H         1 <0>         0.1385
     43 H16         1.9105   -4.7404    4.5294 H         1 <0>         0.1336
     44 H17         3.4814   -4.7876    2.6338 H         1 <0>         0.1379
     45 H18         3.7788   -2.7864    1.2310 H         1 <0>         0.1409
@<TRIPOS>BOND
     1    1    2 1
     2    1   32 1
     3    1   33 1
     4    1   34 1
     5    2    7 1
     6    2    3 1
     7    3    4 1
     8    3   17 1
     9    3    5 1
    10    5    6 1
    11    5   35 1
    12    5   36 1
    13    6    7 1
    14    6   37 1
    15    6   38 1
    16    7    8 1
    17    7    9 1
    18    9   10 1
    19    9   16 1
    20    9   11 1
    21   11   12 1
    22   11   13 1
    23   11   25 1
    24   13   14 1
    25   13   21 1
    26   13   23 1
    27   14   15 2
    28   14   20 1
    29   15   16 1
    30   15   18 1
    31   16   17 2
    32   17   39 1
    33   18   19 3
    34   20   40 1
    35   20   41 1
    36   21   22 3
    37   23   24 3
    38   25   30 ar
    39   25   26 ar
    40   26   27 ar
    41   26   42 1
    42   27   28 ar
    43   27   43 1
    44   28   29 ar
    45   28   44 1
    46   29   30 ar
    47   29   45 1
    48   30   31 1
