@<TRIPOS>MOLECULE
ZINC05330739
   51    53     0     0     0
SMALL
USER_CHARGES
N-(2-furylmethyl)-N-(1-isopropyl-3-phenyl-prop-2-ynyl)-4-methyl-aniline
@<TRIPOS>ATOM
      1 C1          9.9372   -1.6685   -5.2407 C.3       1 <0>        -0.1081
      2 C2          8.9030   -1.9642   -4.1852 C.ar      1 <0>        -0.1397
      3 C3          8.8951   -1.2424   -3.0058 C.ar      1 <0>        -0.0722
      4 C4          7.9489   -1.5110   -2.0363 C.ar      1 <0>        -0.1891
      5 C5          7.0045   -2.5077   -2.2470 C.ar      1 <0>         0.2124
      6 C6          7.0186   -3.2344   -3.4307 C.ar      1 <0>        -0.1870
      7 C7          7.9642   -2.9570   -4.3983 C.ar      1 <0>        -0.0726
      8 N1          6.0465   -2.7823   -1.2684 N.pl3     1 <0>        -0.6108
      9 C8          5.1261   -3.9091   -1.4402 C.3       1 <0>         0.2012
     10 C9          3.8886   -3.4414   -2.1619 C.2       1 <0>        -0.0342
     11 C10         3.7111   -3.4340   -3.4952 C.2       1 <0>        -0.1936
     12 C11         2.4159   -2.9194   -3.7331 C.2       1 <0>        -0.2154
     13 C12         1.8795   -2.6431   -2.5309 C.2       1 <0>        -0.0357
     14 O1          2.7738   -2.9667   -1.5827 O.3       1 <0>        -0.1637
     15 C13         5.9620   -1.9436   -0.0702 C.3       1 <0>         0.2702
     16 H1          6.7816   -1.2250   -0.0712 H         1 <0>         0.1131
     17 C14         4.6781   -1.2237   -0.0647 C.1       1 <0>        -0.1674
     18 C15         3.6541   -0.6495   -0.0604 C.1       1 <0>        -0.1135
     19 C16         2.4051    0.0509   -0.0551 C.ar      1 <0>         0.0200
     20 C17         1.2038   -0.6589   -0.0528 C.ar      1 <0>        -0.0955
     21 C18         0.0037    0.0219   -0.0482 C.ar      1 <0>        -0.1218
     22 C19        -0.0102    1.4053   -0.0457 C.ar      1 <0>        -0.1112
     23 C20         1.1774    2.1149   -0.0479 C.ar      1 <0>        -0.1185
     24 C21         2.3842    1.4461   -0.0525 C.ar      1 <0>        -0.0982
     25 C22         6.0579   -2.8248    1.1769 C.3       1 <0>        -0.1006
     26 C23         7.3924   -3.5731    1.1712 C.3       1 <0>        -0.1441
     27 C24         5.9697   -1.9489    2.4283 C.3       1 <0>        -0.1471
     28 H2         10.8185   -2.2866   -5.0690 H         1 <0>         0.0648
     29 H3          9.5249   -1.8891   -6.2253 H         1 <0>         0.0618
     30 H4         10.2164   -0.6160   -5.1911 H         1 <0>         0.0617
     31 H5          9.6294   -0.4674   -2.8427 H         1 <0>         0.1206
     32 H6          7.9431   -0.9467   -1.1155 H         1 <0>         0.1211
     33 H7          6.2885   -4.0129   -3.5959 H         1 <0>         0.1213
     34 H8          7.9732   -3.5189   -5.3205 H         1 <0>         0.1204
     35 H9          5.6133   -4.6906   -2.0233 H         1 <0>         0.1088
     36 H10         4.8492   -4.3043   -0.4628 H         1 <0>         0.0935
     37 H11         4.4217   -3.7584   -4.2410 H         1 <0>         0.1448
     38 H12         1.9473   -2.7754   -4.6955 H         1 <0>         0.1451
     39 H13         0.8950   -2.2341   -2.3575 H         1 <0>         0.1963
     40 H14         1.2133   -1.7389   -0.0551 H         1 <0>         0.1263
     41 H15        -0.9268   -0.5263   -0.0468 H         1 <0>         0.1271
     42 H16        -0.9522    1.9335   -0.0465 H         1 <0>         0.1254
     43 H17         1.1598    3.1948   -0.0463 H         1 <0>         0.1272
     44 H18         3.3106    2.0013   -0.0546 H         1 <0>         0.1242
     45 H19         5.2384   -3.5434    1.1779 H         1 <0>         0.0771
     46 H20         8.2120   -2.8545    1.1702 H         1 <0>         0.0572
     47 H21         7.4608   -4.2008    2.0597 H         1 <0>         0.0593
     48 H22         7.4553   -4.1971    0.2797 H         1 <0>         0.0604
     49 H23         5.0190   -1.4157    2.4323 H         1 <0>         0.0582
     50 H24         6.0381   -2.5766    3.3167 H         1 <0>         0.0624
     51 H25         6.7893   -1.2302    2.4272 H         1 <0>         0.0581
@<TRIPOS>BOND
     1    1    2 1
     2    1   28 1
     3    1   29 1
     4    1   30 1
     5    2    7 ar
     6    2    3 ar
     7    3    4 ar
     8    3   31 1
     9    4    5 ar
    10    4   32 1
    11    5    6 ar
    12    5    8 1
    13    6    7 ar
    14    6   33 1
    15    7   34 1
    16    8    9 1
    17    8   15 1
    18    9   10 1
    19    9   35 1
    20    9   36 1
    21   10   14 1
    22   10   11 2
    23   11   12 1
    24   11   37 1
    25   12   13 2
    26   12   38 1
    27   13   14 1
    28   13   39 1
    29   15   16 1
    30   15   17 1
    31   15   25 1
    32   17   18 3
    33   18   19 1
    34   19   24 ar
    35   19   20 ar
    36   20   21 ar
    37   20   40 1
    38   21   22 ar
    39   21   41 1
    40   22   23 ar
    41   22   42 1
    42   23   24 ar
    43   23   43 1
    44   24   44 1
    45   25   26 1
    46   25   27 1
    47   25   45 1
    48   26   46 1
    49   26   47 1
    50   26   48 1
    51   27   49 1
    52   27   50 1
    53   27   51 1
