@<TRIPOS>MOLECULE
ZINC03203142
   49    52     0     0     0
SMALL
USER_CHARGES
5-(2-chloro-7-methyl-3-quinolyl)-N,N-bis[5-(2-chloro-7-methyl-3-quinolyl)-3-(p-tolyl)-2,5-dihydropyrazol-5-yl]-3-(p-tolyl)-2,5-dihydropyrazole-1-carbothioamide
@<TRIPOS>ATOM
      1 C1         -6.5105   -0.3841    0.0289 C.3       1 <0>        -0.1210
      2 C2         -5.1102    0.1728    0.0251 C.ar      1 <0>        -0.0706
      3 C3         -4.0268   -0.6874    0.0159 C.ar      1 <0>        -0.1174
      4 C4         -2.7422   -0.1834    0.0132 C.ar      1 <0>        -0.1015
      5 C5         -2.5374    1.1960    0.0194 C.ar      1 <0>        -0.0494
      6 C6         -3.6335    2.0579    0.0340 C.ar      1 <0>        -0.0831
      7 C7         -4.9134    1.5420    0.0312 C.ar      1 <0>        -0.1151
      8 C8         -1.1611    1.7433    0.0165 C.2       1 <0>         0.1987
      9 C9         -0.8717    3.0416    0.0267 C.2       1 <0>        -0.2602
     10 C10         0.6352    3.1690    0.0130 C.3       1 <0>         0.2489
     11 H1          0.9806    3.6869    0.9078 H         1 <0>         0.1222
     12 N1          1.1282    1.7820    0.0009 N.pl3     1 <0>        -0.3751
     13 N2         -0.0111    0.9658    0.0074 N.pl3     1 <0>        -0.5679
     14 C11         2.4141    1.3788   -0.0129 C.2       1 <0>         0.5641
     15 S1          3.6745    2.5375   -0.0182 S.2       1 <0>        -0.5813
     16 N3          2.7079    0.0635   -0.0226 N.pl3     1 <0>        -0.6907
     17 C12         4.1058   -0.3747   -0.0375 C.3       1 <0>         0.0925
     18 C13         1.0914    3.8991   -1.2238 C.ar      1 <0>        -0.1128
     19 C14         1.3873    3.2011   -2.3595 C.ar      1 <0>        -0.0169
     20 C15         1.8098    3.9225   -3.4921 C.ar      1 <0>        -0.0970
     21 C16         2.1306    3.2727   -4.6948 C.ar      1 <0>        -0.0894
     22 C17         2.5352    4.0056   -5.7685 C.ar      1 <0>        -0.1097
     23 C18         2.6354    5.3933   -5.6901 C.ar      1 <0>        -0.0621
     24 C19         2.3319    6.0554   -4.5406 C.ar      1 <0>        -0.0945
     25 C20         1.9108    5.3335   -3.4101 C.ar      1 <0>         0.1505
     26 N4          1.6061    5.9573   -2.2677 N.ar      1 <0>        -0.4610
     27 C21         1.2064    5.2889   -1.2116 C.ar      1 <0>         0.2321
     28 Cl1         0.8181    6.1566    0.2410 Cl        1 <0>        -0.0214
     29 C22         3.0865    6.1734   -6.8980 C.3       1 <0>        -0.1188
     30 H2         -6.8433   -0.5234    1.0575 H         1 <0>         0.0753
     31 H3         -7.1794    0.3110   -0.4784 H         1 <0>         0.0706
     32 H4         -6.5217   -1.3429   -0.4895 H         1 <0>         0.0690
     33 H5         -4.1867   -1.7555    0.0111 H         1 <0>         0.1275
     34 H6         -1.8971   -0.8558    0.0067 H         1 <0>         0.1168
     35 H7         -3.4810    3.1270    0.0436 H         1 <0>         0.1334
     36 H8         -5.7631    2.2086    0.0387 H         1 <0>         0.1313
     37 H9         -1.5821    3.8550    0.0379 H         1 <0>         0.1710
     38 H10         0.0021   -0.0041    0.0020 H         1 <0>         0.4276
     39 H11         1.9938   -0.5930   -0.0195 H         1 <0>         0.3931
     40 H12         4.1450   -1.4640   -0.0437 H         1 <0>         0.0831
     41 H13         4.5981    0.0116   -0.9300 H         1 <0>         0.0816
     42 H14         4.6142    0.0022    0.8499 H         1 <0>         0.0826
     43 H15         1.2999    2.1250   -2.3879 H         1 <0>         0.1296
     44 H16         2.0566    2.1977   -4.7678 H         1 <0>         0.1280
     45 H17         2.7814    3.5050   -6.6932 H         1 <0>         0.1299
     46 H18         2.4149    7.1313   -4.4967 H         1 <0>         0.1390
     47 H19         2.2188    6.4493   -7.4972 H         1 <0>         0.0759
     48 H20         3.6065    7.0752   -6.5747 H         1 <0>         0.0717
     49 H21         3.7606    5.5599   -7.4957 H         1 <0>         0.0708
@<TRIPOS>BOND
     1    1    2 1
     2    1   30 1
     3    1   31 1
     4    1   32 1
     5    2    7 ar
     6    2    3 ar
     7    3    4 ar
     8    3   33 1
     9    4    5 ar
    10    4   34 1
    11    5    6 ar
    12    5    8 1
    13    6    7 ar
    14    6   35 1
    15    7   36 1
    16    8   13 1
    17    8    9 2
    18    9   10 1
    19    9   37 1
    20   10   11 1
    21   10   12 1
    22   10   18 1
    23   12   13 1
    24   12   14 1
    25   13   38 1
    26   14   15 2
    27   14   16 1
    28   16   17 1
    29   16   39 1
    30   17   40 1
    31   17   41 1
    32   17   42 1
    33   18   27 ar
    34   18   19 ar
    35   19   20 ar
    36   19   43 1
    37   20   25 ar
    38   20   21 ar
    39   21   22 ar
    40   21   44 1
    41   22   23 ar
    42   22   45 1
    43   23   24 ar
    44   23   29 1
    45   24   25 ar
    46   24   46 1
    47   25   26 ar
    48   26   27 ar
    49   27   28 1
    50   29   47 1
    51   29   48 1
    52   29   49 1
