@<TRIPOS>MOLECULE
ZINC57797467
   43    45     0     0     0
SMALL
USER_CHARGES

@<TRIPOS>ATOM
      1 C1         -0.2756    1.4876    0.0326 C.3       1 <0>        -0.1145
      2 C2         -0.1232   -0.0115    0.0130 C.ar      1 <0>        -0.0647
      3 C3         -0.2508   -0.6972   -1.1768 C.ar      1 <0>        -0.1127
      4 C4         -0.1108   -2.0773   -1.1970 C.ar      1 <0>         0.0520
      5 C5          0.1604   -2.7725   -0.0050 C.ar      1 <0>         0.0506
      6 C6          0.2865   -2.0610    1.1924 C.ar      1 <0>        -0.0634
      7 C7          0.1499   -0.6916    1.1912 C.ar      1 <0>        -0.0925
      8 C8          0.2925    0.0749    2.4808 C.3       1 <0>        -0.1128
      9 N1          0.2446   -4.0884   -0.3189 N.2       1 <0>        -0.4810
     10 C9          0.0464   -4.2480   -1.6049 C.2       1 <0>         0.3333
     11 N2         -0.1781   -3.0324   -2.1934 N.pl3     1 <0>        -0.5973
     12 H1         -0.3518   -2.8717   -3.1340 H         1 <0>         0.4221
     13 C10         0.0628   -5.5453   -2.3130 C.ar      1 <0>        -0.0197
     14 C11        -0.1560   -5.5926   -3.6909 C.ar      1 <0>        -0.1191
     15 C12        -0.1406   -6.8034   -4.3513 C.ar      1 <0>        -0.1638
     16 C13         0.0915   -7.9770   -3.6497 C.ar      1 <0>         0.0754
     17 C14         0.3105   -7.9376   -2.2728 C.ar      1 <0>         0.1956
     18 C15         0.3028   -6.7248   -1.6061 C.ar      1 <0>        -0.1183
     19 N3          0.5437   -9.1235   -1.5666 N.pl3     1 <0>        -0.8707
     20 O1          0.1052   -9.1676   -4.3050 O.3       1 <0>        -0.3117
     21 C16        -0.0064   -9.1257   -5.7290 C.3       1 <0>         0.0797
     22 C17         0.6264  -10.3837   -6.3274 C.3       1 <0>        -0.1500
     23 C18        -1.4834   -9.0609   -6.1231 C.3       1 <0>        -0.1819
     24 H2          0.6952    1.9537   -0.1358 H         1 <0>         0.0725
     25 H3         -0.9665    1.7929   -0.7532 H         1 <0>         0.0662
     26 H4         -0.6657    1.8006    1.0011 H         1 <0>         0.0725
     27 H5         -0.4594   -0.1610   -2.0908 H         1 <0>         0.1232
     28 H6          0.4943   -2.5840    2.1141 H         1 <0>         0.1306
     29 H7         -0.6807    0.1554    2.9651 H         1 <0>         0.0708
     30 H8          0.9843   -0.4490    3.1403 H         1 <0>         0.0673
     31 H9          0.6769    1.0728    2.2698 H         1 <0>         0.0699
     32 H10        -0.3377   -4.6806   -4.2401 H         1 <0>         0.1195
     33 H11        -0.3101   -6.8377   -5.4174 H         1 <0>         0.1359
     34 H12         0.4772   -6.6915   -0.5408 H         1 <0>         0.1443
     35 H13         0.5530   -9.9730   -2.0348 H         1 <0>         0.4046
     36 H14         0.6959   -9.0959   -0.6090 H         1 <0>         0.4010
     37 H15         0.5098   -8.2438   -6.1082 H         1 <0>         0.0736
     38 H16         0.1102  -11.2656   -5.9483 H         1 <0>         0.0672
     39 H17         0.5412  -10.3517   -7.4136 H         1 <0>         0.0777
     40 H18         1.6786  -10.4298   -6.0467 H         1 <0>         0.0651
     41 H19        -1.5685   -9.0290   -7.2093 H         1 <0>         0.0724
     42 H20        -1.9996   -9.9429   -5.7440 H         1 <0>         0.0678
     43 H21        -1.9342   -8.1648   -5.6968 H         1 <0>         0.0633
@<TRIPOS>BOND
     1    1    2 1
     2    1   24 1
     3    1   25 1
     4    1   26 1
     5    2    7 ar
     6    2    3 ar
     7    3    4 ar
     8    3   27 1
     9    4   11 1
    10    4    5 ar
    11    5    6 ar
    12    5    9 1
    13    6    7 ar
    14    6   28 1
    15    7    8 1
    16    8   29 1
    17    8   30 1
    18    8   31 1
    19    9   10 2
    20   10   11 1
    21   10   13 1
    22   11   12 1
    23   13   18 ar
    24   13   14 ar
    25   14   15 ar
    26   14   32 1
    27   15   16 ar
    28   15   33 1
    29   16   17 ar
    30   16   20 1
    31   17   18 ar
    32   17   19 1
    33   18   34 1
    34   19   35 1
    35   19   36 1
    36   20   21 1
    37   21   22 1
    38   21   23 1
    39   21   37 1
    40   22   38 1
    41   22   39 1
    42   22   40 1
    43   23   41 1
    44   23   42 1
    45   23   43 1
