@<TRIPOS>MOLECULE
ZINC46812582
   40    41     0     0     0
SMALL
USER_CHARGES

@<TRIPOS>ATOM
      1 C1         -0.0184    1.5028    0.0103 C.3       1 <0>        -0.0726
      2 C2          0.0021   -0.0041    0.0020 C.2       1 <0>        -0.1449
      3 C3         -1.0392   -0.8719    0.0017 C.2       1 <0>        -0.1062
      4 C4         -0.7802   -2.2296   -0.0075 C.2       1 <0>        -0.7086
      5 C5          0.5074   -2.6532   -0.0160 C.2       1 <0>        -0.0336
      6 S1          1.4039   -1.1093   -0.0179 S.3       1 <0>         0.0892
      7 C6          1.0430   -4.0617   -0.0269 C.3       1 <0>        -0.1182
      8 S2         -2.1040   -3.3924   -0.0077 S.o2      1 <0>         2.7198
      9 O1         -1.8131   -4.3392    1.0113 O.2       1 <0>        -0.9280
     10 O2         -3.3077   -2.6375   -0.0248 O.2       1 <0>        -0.9476
     11 N1         -2.0375   -4.2099   -1.4463 N.pl3     1 <0>        -0.9906
     12 C7         -2.7167   -3.8121   -2.6928 C.3       1 <0>         0.1177
     13 C8         -1.8887   -4.4719   -3.8236 C.3       1 <0>        -0.1284
     14 C9         -1.4992   -5.8264   -3.1747 C.3       1 <0>        -0.1221
     15 C10        -1.2861   -5.4492   -1.6937 C.3       1 <0>         0.1269
     16 H1         -0.2261   -5.2850   -1.4998 H         1 <0>         0.1094
     17 C11        -1.8077   -6.5505   -0.8069 C.2       1 <0>         0.5032
     18 O3         -2.7198   -6.3297   -0.0387 O.2       1 <0>        -0.4935
     19 N2         -1.2605   -7.7806   -0.8676 N.am      1 <0>        -0.7300
     20 C12        -1.7675   -8.8512   -0.0056 C.3       1 <0>         0.0776
     21 C13        -0.9795  -10.1356   -0.2706 C.3       1 <0>         0.4488
     22 F1          0.3746   -9.9172    0.0047 F         1 <0>        -0.1775
     23 F2         -1.4637  -11.1580    0.5526 F         1 <0>        -0.1708
     24 F3         -1.1290  -10.5062   -1.6113 F         1 <0>        -0.1780
     25 H2          1.0042    1.8801    0.0026 H         1 <0>         0.0750
     26 H3         -0.5455    1.8639   -0.8728 H         1 <0>         0.0850
     27 H4         -0.5286    1.8543    0.9071 H         1 <0>         0.0852
     28 H5         -2.0560   -0.5079    0.0090 H         1 <0>         0.1500
     29 H6          1.1674   -4.3952   -1.0571 H         1 <0>         0.0969
     30 H7          2.0064   -4.0880    0.4823 H         1 <0>         0.0983
     31 H8          0.3427   -4.7207    0.4863 H         1 <0>         0.1045
     32 H9         -3.7401   -4.1873   -2.7035 H         1 <0>         0.0782
     33 H10        -2.7083   -2.7274   -2.7998 H         1 <0>         0.0835
     34 H11        -2.4975   -4.6262   -4.7145 H         1 <0>         0.0922
     35 H12        -1.0029   -3.8806   -4.0552 H         1 <0>         0.0823
     36 H13        -2.3070   -6.5507   -3.2796 H         1 <0>         0.0869
     37 H14        -0.5763   -6.2108   -3.6090 H         1 <0>         0.0956
     38 H15        -0.5310   -7.9572   -1.4821 H         1 <0>         0.4080
     39 H16        -1.6510   -8.5625    1.0390 H         1 <0>         0.1193
     40 H17        -2.8226   -9.0214   -0.2201 H         1 <0>         0.1169
@<TRIPOS>BOND
     1    1    2 1
     2    1   25 1
     3    1   26 1
     4    1   27 1
     5    2    6 1
     6    2    3 2
     7    3    4 1
     8    3   28 1
     9    4    5 2
    10    4    8 1
    11    5    6 1
    12    5    7 1
    13    7   29 1
    14    7   30 1
    15    7   31 1
    16    8    9 2
    17    8   10 2
    18    8   11 1
    19   11   15 1
    20   11   12 1
    21   12   13 1
    22   12   32 1
    23   12   33 1
    24   13   14 1
    25   13   34 1
    26   13   35 1
    27   14   15 1
    28   14   36 1
    29   14   37 1
    30   15   16 1
    31   15   17 1
    32   17   18 2
    33   17   19 am
    34   19   20 1
    35   19   38 1
    36   20   21 1
    37   20   39 1
    38   20   40 1
    39   21   22 1
    40   21   23 1
    41   21   24 1
