@<TRIPOS>MOLECULE
ZINC37477441
   63    66     0     0     0
SMALL
USER_CHARGES

@<TRIPOS>ATOM
      1 C1         -0.0184    1.5028    0.0103 C.3       1 <0>        -0.0879
      2 C2          0.0021   -0.0041    0.0020 C.2       1 <0>        -0.1478
      3 C3          0.0086   -0.8040   -1.0735 C.2       1 <0>         0.0310
      4 O1          0.0277   -2.0945   -0.6899 O.3       1 <0>        -0.1713
      5 C4          0.0344   -2.1979    0.6496 C.ar      1 <0>         0.3371
      6 C5          0.0252   -0.8909    1.1677 C.ar      1 <0>        -0.2725
      7 C6          0.0360   -0.7112    2.5572 C.ar      1 <0>         0.4803
      8 N1          0.0234    0.5616    3.1088 N.am      1 <0>        -0.6476
      9 C7          0.0341    0.7159    4.4477 C.2       1 <0>         0.5477
     10 O2          0.0546   -0.2600    5.1718 O.2       1 <0>        -0.4475
     11 C8          0.0207    2.0720    5.0353 C.ar      1 <0>        -0.1386
     12 C9         -0.0088    3.1950    4.2065 C.ar      1 <0>        -0.0889
     13 C10        -0.0216    4.4578    4.7616 C.ar      1 <0>        -0.1245
     14 C11        -0.0048    4.6128    6.1364 C.ar      1 <0>        -0.0881
     15 C12         0.0249    3.5040    6.9636 C.ar      1 <0>        -0.1238
     16 C13         0.0317    2.2354    6.4217 C.ar      1 <0>        -0.0535
     17 N2          0.0580   -1.7892    3.3342 N.ar      1 <0>        -0.4998
     18 C14         0.0696   -3.0076    2.8081 C.ar      1 <0>         0.3442
     19 N3          0.0517   -3.2186    1.5013 N.ar      1 <0>        -0.5362
     20 S1          0.0994   -4.3977    3.8904 S.3       1 <0>         0.1156
     21 C15         0.1080   -5.8252    2.7712 C.3       1 <0>        -0.1236
     22 H1         -0.7415   -5.7592    2.0915 H         1 <0>         0.1235
     23 C16         1.4077   -5.8325    1.9639 C.3       1 <0>        -0.1438
     24 C17         0.0096   -7.0954    3.5763 C.2       1 <0>         0.5405
     25 O3          0.3006   -7.0911    4.7537 O.2       1 <0>        -0.5204
     26 N4         -0.4017   -8.2360    2.9879 N.am      1 <0>        -0.6038
     27 C18        -0.7519   -8.2583    1.5612 C.3       1 <0>         0.1033
     28 C19         0.0529   -9.3654    0.8732 C.3       1 <0>        -0.1073
     29 H2          1.1140   -9.1183    0.9067 H         1 <0>         0.0765
     30 C20        -0.1861  -10.6910    1.5998 C.3       1 <0>        -0.1109
     31 C21         0.2935  -10.5742    3.0485 C.3       1 <0>        -0.1073
     32 H3          1.3523  -10.3158    3.0615 H         1 <0>         0.0748
     33 C22        -0.5028   -9.4822    3.7597 C.3       1 <0>         0.1160
     34 C23         0.0851  -11.9102    3.7646 C.3       1 <0>        -0.1457
     35 C24        -0.3960   -9.4929   -0.5839 C.3       1 <0>        -0.1471
     36 C25        -0.0040   -0.3283   -2.5034 C.3       1 <0>        -0.0776
     37 H4          1.0042    1.8801    0.0026 H         1 <0>         0.0801
     38 H5         -0.5455    1.8639   -0.8728 H         1 <0>         0.0826
     39 H6         -0.5286    1.8543    0.9071 H         1 <0>         0.0609
     40 H7         -0.0212    3.0753    3.1332 H         1 <0>         0.1219
     41 H8         -0.0444    5.3274    4.1216 H         1 <0>         0.1325
     42 H9         -0.0146    5.6037    6.5658 H         1 <0>         0.1311
     43 H10         0.0382    3.6320    8.0359 H         1 <0>         0.1344
     44 H11         0.0503    1.3707    7.0685 H         1 <0>         0.1404
     45 H12         2.2573   -5.8986    2.6436 H         1 <0>         0.0714
     46 H13         1.4129   -6.6903    1.2914 H         1 <0>         0.0710
     47 H14         1.4789   -4.9139    1.3816 H         1 <0>         0.0874
     48 H15        -1.8176   -8.4580    1.4495 H         1 <0>         0.0746
     49 H16        -0.5091   -7.2961    1.1103 H         1 <0>         0.0898
     50 H17        -1.2505  -10.9251    1.5874 H         1 <0>         0.0665
     51 H18         0.3661  -11.4852    1.0974 H         1 <0>         0.0686
     52 H19        -0.0957   -9.3272    4.7589 H         1 <0>         0.0955
     53 H20        -1.5477   -9.7839    3.8313 H         1 <0>         0.0707
     54 H21         0.6540  -12.6880    3.2553 H         1 <0>         0.0601
     55 H22         0.4267  -11.8266    4.7962 H         1 <0>         0.0591
     56 H23        -0.9740  -12.1677    3.7523 H         1 <0>         0.0576
     57 H24        -0.2278   -8.5476   -1.0999 H         1 <0>         0.0587
     58 H25         0.1769  -10.2807   -1.0730 H         1 <0>         0.0610
     59 H26        -1.4568   -9.7411   -0.6169 H         1 <0>         0.0582
     60 H27         1.0205   -0.1993   -2.8525 H         1 <0>         0.0905
     61 H28        -0.5103   -1.0651   -3.1270 H         1 <0>         0.0842
     62 H29        -0.5313    0.6237   -2.5650 H         1 <0>         0.0968
     63 H30         0.0070    1.3405    2.5309 H         1 <0>         0.4192
@<TRIPOS>BOND
     1    1    2 1
     2    1   37 1
     3    1   38 1
     4    1   39 1
     5    2    6 1
     6    2    3 2
     7    3    4 1
     8    3   36 1
     9    4    5 1
    10    5   19 ar
    11    5    6 ar
    12    6    7 ar
    13    7    8 1
    14    7   17 ar
    15    8    9 am
    16    8   63 1
    17    9   10 2
    18    9   11 1
    19   11   16 ar
    20   11   12 ar
    21   12   13 ar
    22   12   40 1
    23   13   14 ar
    24   13   41 1
    25   14   15 ar
    26   14   42 1
    27   15   16 ar
    28   15   43 1
    29   16   44 1
    30   17   18 ar
    31   18   19 ar
    32   18   20 1
    33   20   21 1
    34   21   22 1
    35   21   23 1
    36   21   24 1
    37   23   45 1
    38   23   46 1
    39   23   47 1
    40   24   25 2
    41   24   26 am
    42   26   33 1
    43   26   27 1
    44   27   28 1
    45   27   48 1
    46   27   49 1
    47   28   29 1
    48   28   30 1
    49   28   35 1
    50   30   31 1
    51   30   50 1
    52   30   51 1
    53   31   32 1
    54   31   33 1
    55   31   34 1
    56   33   52 1
    57   33   53 1
    58   34   54 1
    59   34   55 1
    60   34   56 1
    61   35   57 1
    62   35   58 1
    63   35   59 1
    64   36   60 1
    65   36   61 1
    66   36   62 1
