@<TRIPOS>MOLECULE
ZINC65287821
   43    46     0     0     0
SMALL
USER_CHARGES

@<TRIPOS>ATOM
      1 C1         -0.2108    1.2679    0.0475 C.3       1 <0>         0.0687
      2 N1         -0.0910   -0.1922    0.0472 N.pl3     1 <0>        -0.4754
      3 C2         -0.0500   -1.0064   -1.0350 C.2       1 <0>         0.1525
      4 N2          0.0609   -2.2306   -0.5960 N.2       1 <0>        -0.2937
      5 N3          0.0914   -2.2283    0.6896 N.2       1 <0>        -0.2828
      6 C3          0.0072   -1.0022    1.1290 C.2       1 <0>         0.1776
      7 C4          0.0145   -0.5681    2.5721 C.3       1 <0>        -0.0102
      8 H1         -0.0726    0.5171    2.6260 H         1 <0>         0.0899
      9 C5         -1.1644   -1.2122    3.3052 C.3       1 <0>        -0.1096
     10 C6         -1.1771   -0.7461    4.7628 C.3       1 <0>        -0.1342
     11 C7          0.1192   -1.1900    5.4479 C.3       1 <0>         0.1077
     12 N4          1.2606   -0.6955    4.6662 N.am      1 <0>        -0.5969
     13 C8          1.3246   -1.0093    3.2322 C.3       1 <0>         0.1244
     14 C9          2.2309    0.0329    5.2531 C.2       1 <0>         0.5840
     15 O1          3.2146    0.3589    4.6179 O.2       1 <0>        -0.5180
     16 C10         2.0987    0.4357    6.6706 C.ar      1 <0>         0.1369
     17 C11         1.7513    1.7655    7.0017 C.ar      1 <0>        -0.0797
     18 C12         1.5210    2.7404    6.0224 C.ar      1 <0>        -0.0897
     19 C13         1.1885    4.0067    6.4002 C.ar      1 <0>        -0.1081
     20 C14         1.0735    4.3491    7.7463 C.ar      1 <0>        -0.0947
     21 C15         1.2900    3.4274    8.7255 C.ar      1 <0>        -0.1075
     22 C16         1.6341    2.1137    8.3726 C.ar      1 <0>        -0.0249
     23 C17         1.8699    1.1164    9.3349 C.ar      1 <0>        -0.1353
     24 C18         2.2005   -0.1409    8.9140 C.ar      1 <0>         0.0782
     25 N5          2.2995   -0.4474    7.6333 N.ar      1 <0>        -0.4547
     26 H2          0.7833    1.7140    0.0176 H         1 <0>         0.0859
     27 H3         -0.7783    1.5860   -0.8270 H         1 <0>         0.0960
     28 H4         -0.7264    1.5899    0.9522 H         1 <0>         0.0907
     29 H5         -0.1004   -0.6994   -2.0692 H         1 <0>         0.2203
     30 H6         -2.0965   -0.9189    2.8220 H         1 <0>         0.0705
     31 H7         -1.0639   -2.2970    3.2717 H         1 <0>         0.0840
     32 H8         -1.2526    0.3408    4.7966 H         1 <0>         0.0689
     33 H9         -2.0304   -1.1867    5.2783 H         1 <0>         0.0866
     34 H10         0.1599   -0.7766    6.4557 H         1 <0>         0.0843
     35 H11         0.1530   -2.2784    5.4956 H         1 <0>         0.0824
     36 H12         1.4573   -2.0830    3.0991 H         1 <0>         0.0900
     37 H13         2.1601   -0.4767    2.7779 H         1 <0>         0.0967
     38 H14         1.6068    2.4902    4.9753 H         1 <0>         0.1292
     39 H15         1.0116    4.7574    5.6441 H         1 <0>         0.1310
     40 H16         0.8089    5.3605    8.0171 H         1 <0>         0.1321
     41 H17         1.1980    3.7055    9.7650 H         1 <0>         0.1371
     42 H18         1.7914    1.3402   10.3885 H         1 <0>         0.1459
     43 H19         2.3821   -0.9088    9.6515 H         1 <0>         0.1638
@<TRIPOS>BOND
     1    1    2 1
     2    1   26 1
     3    1   27 1
     4    1   28 1
     5    2    6 1
     6    2    3 1
     7    3    4 2
     8    3   29 1
     9    4    5 1
    10    5    6 2
    11    6    7 1
    12    7    8 1
    13    7   13 1
    14    7    9 1
    15    9   10 1
    16    9   30 1
    17    9   31 1
    18   10   11 1
    19   10   32 1
    20   10   33 1
    21   11   12 1
    22   11   34 1
    23   11   35 1
    24   12   13 1
    25   12   14 am
    26   13   36 1
    27   13   37 1
    28   14   15 2
    29   14   16 1
    30   16   25 ar
    31   16   17 ar
    32   17   22 ar
    33   17   18 ar
    34   18   19 ar
    35   18   38 1
    36   19   20 ar
    37   19   39 1
    38   20   21 ar
    39   20   40 1
    40   21   22 ar
    41   21   41 1
    42   22   23 ar
    43   23   24 ar
    44   23   42 1
    45   24   25 ar
    46   24   43 1
