@<TRIPOS>MOLECULE
ZINC52447478
   36    38     0     0     0
SMALL
USER_CHARGES

@<TRIPOS>ATOM
      1 C1         -0.0184    1.5028    0.0103 C.3       1 <0>        -0.0683
      2 C2          0.0021   -0.0041    0.0020 C.2       1 <0>         0.0562
      3 N1          0.0091   -0.8120   -1.0287 N.2       1 <0>        -0.5195
      4 C3          0.0274   -2.1209   -0.8741 C.2       1 <0>         0.0511
      5 C4          0.0387   -2.5899    0.3999 C.2       1 <0>        -0.2250
      6 S1          0.0288   -1.0567    1.3151 S.3       1 <0>         0.1071
      7 C5          0.0592   -4.0106    0.9023 C.3       1 <0>         0.2298
      8 N2          1.4469   -4.4530    1.0595 N.pl3     1 <0>        -0.6851
      9 C6          2.1402   -4.2512    2.3342 C.3       1 <0>         0.1071
     10 C7          2.1089   -5.0670   -0.0057 C.ar      1 <0>         0.2473
     11 C8          2.8325   -4.2867   -0.9158 C.ar      1 <0>        -0.1077
     12 C9          3.4868   -4.8571   -1.9614 C.ar      1 <0>        -0.0399
     13 C10         3.4433   -6.2514   -2.1419 C.ar      1 <0>         0.1326
     14 C11         2.7126   -7.0470   -1.2242 C.ar      1 <0>        -0.0656
     15 C12         2.0492   -6.4360   -0.1490 C.ar      1 <0>        -0.0297
     16 N3          1.2874   -7.2552    0.8205 N.pl3     1 <0>         0.0338
     17 O1          0.1177   -7.4904    0.6256 O.2       1 <0>        -0.1375
     18 O2          1.8350   -7.6890    1.8073 O.3       1 <0>        -0.1349
     19 C13         2.6730   -8.4419   -1.4103 C.ar      1 <0>        -0.0711
     20 C14         3.3461   -8.9694   -2.4755 C.ar      1 <0>        -0.1445
     21 C15         4.0453   -8.1306   -3.3401 C.ar      1 <0>         0.1413
     22 N4          4.0804   -6.8320   -3.1636 N.ar      1 <0>        -0.4577
     23 H1          1.0042    1.8801    0.0026 H         1 <0>         0.0901
     24 H2         -0.5455    1.8639   -0.8728 H         1 <0>         0.0932
     25 H3         -0.5286    1.8543    0.9071 H         1 <0>         0.0864
     26 H4          0.0329   -2.7897   -1.7221 H         1 <0>         0.1665
     27 H5         -0.4501   -4.0630    1.8646 H         1 <0>         0.0956
     28 H6         -0.4492   -4.6565    0.1865 H         1 <0>         0.0966
     29 H7          1.9827   -5.1189    2.9748 H         1 <0>         0.0518
     30 H8          3.2071   -4.1233    2.1513 H         1 <0>         0.0634
     31 H9          1.7465   -3.3611    2.8250 H         1 <0>         0.0692
     32 H10         2.8709   -3.2154   -0.7850 H         1 <0>         0.1501
     33 H11         4.0397   -4.2399   -2.6540 H         1 <0>         0.1558
     34 H12         2.1260   -9.0773   -0.7295 H         1 <0>         0.1376
     35 H13         3.3364  -10.0357   -2.6468 H         1 <0>         0.1511
     36 H14         4.5732   -8.5615   -4.1780 H         1 <0>         0.1728
@<TRIPOS>BOND
     1    1    2 1
     2    1   23 1
     3    1   24 1
     4    1   25 1
     5    2    6 1
     6    2    3 2
     7    3    4 1
     8    4    5 2
     9    4   26 1
    10    5    6 1
    11    5    7 1
    12    7    8 1
    13    7   27 1
    14    7   28 1
    15    8    9 1
    16    8   10 1
    17    9   29 1
    18    9   30 1
    19    9   31 1
    20   10   15 ar
    21   10   11 ar
    22   11   12 ar
    23   11   32 1
    24   12   13 ar
    25   12   33 1
    26   13   22 ar
    27   13   14 ar
    28   14   15 ar
    29   14   19 ar
    30   15   16 1
    31   16   17 2
    32   16   18 1
    33   19   20 ar
    34   19   34 1
    35   20   21 ar
    36   20   35 1
    37   21   22 ar
    38   21   36 1
