@<TRIPOS>MOLECULE
ZINC20514468
   42    43     0     0     0
SMALL
USER_CHARGES
4-fluoro-3-[[(1S,5R)-3,3,5-trimethylcyclohexoxy]methyl]benzonitrile
@<TRIPOS>ATOM
      1 C1         -5.0766   -3.3902   -1.1395 C.3       1 <0>        -0.1532
      2 C2         -3.8229   -4.1978   -1.4743 C.3       1 <0>        -0.0819
      3 H1         -3.9079   -4.5781   -2.5029 H         1 <0>         0.0654
      4 C3         -2.5871   -3.3105   -1.4344 C.3       1 <0>        -0.1328
      5 C4         -2.1851   -3.0023    0.0069 C.3       1 <0>         0.0955
      6 H2         -2.9651   -2.4333    0.5340 H         1 <0>         0.0662
      7 C5         -1.8639   -4.3156    0.7189 C.3       1 <0>        -0.1046
      8 C6         -3.1000   -5.2088    0.7730 C.3       1 <0>        -0.0599
      9 C7         -3.7021   -5.4324   -0.6041 C.3       1 <0>        -0.1050
     10 C8         -2.6642   -6.5803    1.3319 C.3       1 <0>        -0.1480
     11 C9         -4.1317   -4.6243    1.7397 C.3       1 <0>        -0.1490
     12 O1         -1.0149   -2.1754    0.0001 O.3       1 <0>        -0.3841
     13 C10        -1.2935   -0.7738    0.0103 C.3       1 <0>         0.1040
     14 C11         0.0021   -0.0041    0.0020 C.ar      1 <0>        -0.1227
     15 C12         1.2038   -0.6797   -0.0136 C.ar      1 <0>        -0.0192
     16 C13         2.4037    0.0350   -0.0213 C.ar      1 <0>        -0.0381
     17 C14         2.3786    1.4319   -0.0130 C.ar      1 <0>        -0.0417
     18 C15         1.1714    2.0968    0.0021 C.ar      1 <0>        -0.1513
     19 C16        -0.0167    1.3820    0.0096 C.ar      1 <0>         0.1333
     20 F1         -1.1972    2.0389    0.0188 F         1 <0>        -0.1287
     21 C17         3.6549   -0.6612   -0.0370 C.1       1 <0>         0.2517
     22 N1          4.6475   -1.2136   -0.0495 N.1       1 <0>        -0.4063
     23 H3         -5.1274   -2.5052   -1.7908 H         1 <0>         0.0549
     24 H4         -5.0364   -3.0698   -0.0880 H         1 <0>         0.0603
     25 H5         -5.9682   -4.0144   -1.2988 H         1 <0>         0.0567
     26 H6         -1.7514   -3.8232   -1.9331 H         1 <0>         0.0724
     27 H7         -2.7985   -2.3638   -1.9531 H         1 <0>         0.0650
     28 H8         -1.0657   -4.8419    0.1749 H         1 <0>         0.0725
     29 H9         -1.5301   -4.1041    1.7455 H         1 <0>         0.0698
     30 H10        -4.7005   -5.8635   -0.4387 H         1 <0>         0.0660
     31 H11        -3.0614   -6.1729   -1.1052 H         1 <0>         0.0623
     32 H12        -3.5360   -7.2491    1.3833 H         1 <0>         0.0565
     33 H13        -2.2431   -6.4486    2.3395 H         1 <0>         0.0564
     34 H14        -1.9029   -7.0204    0.6710 H         1 <0>         0.0554
     35 H15        -5.0169   -5.2766    1.7696 H         1 <0>         0.0570
     36 H16        -4.4269   -3.6211    1.3984 H         1 <0>         0.0588
     37 H17        -3.6931   -4.5549    2.7461 H         1 <0>         0.0557
     38 H18        -1.8822   -0.5105   -0.8808 H         1 <0>         0.0707
     39 H19        -1.8650   -0.5201    0.9153 H         1 <0>         0.0709
     40 H20         1.2172   -1.7596   -0.0202 H         1 <0>         0.1534
     41 H21         3.3034    1.9896   -0.0186 H         1 <0>         0.1453
     42 H22         1.1508    3.1765    0.0082 H         1 <0>         0.1503
@<TRIPOS>BOND
     1    1    2 1
     2    1   23 1
     3    1   24 1
     4    1   25 1
     5    2    3 1
     6    2    9 1
     7    2    4 1
     8    4    5 1
     9    4   26 1
    10    4   27 1
    11    5    6 1
    12    5    7 1
    13    5   12 1
    14    7    8 1
    15    7   28 1
    16    7   29 1
    17    8    9 1
    18    8   10 1
    19    8   11 1
    20    9   30 1
    21    9   31 1
    22   10   32 1
    23   10   33 1
    24   10   34 1
    25   11   35 1
    26   11   36 1
    27   11   37 1
    28   12   13 1
    29   13   14 1
    30   13   38 1
    31   13   39 1
    32   14   19 ar
    33   14   15 ar
    34   15   16 ar
    35   15   40 1
    36   16   17 ar
    37   16   21 1
    38   17   18 ar
    39   17   41 1
    40   18   19 ar
    41   18   42 1
    42   19   20 1
    43   21   22 3
