@<TRIPOS>MOLECULE
ZINC02490422
   35    36     0     0     0
SMALL
USER_CHARGES
1-(4-bromo-3-methyl-phenyl)-4,4,6-trimethyl-pyrimidine-2-thiol
@<TRIPOS>ATOM
      1 C1          6.0858    2.2133    3.0738 C.3       1 <0>        -0.1279
      2 C2          5.3112    2.6077    1.8427 C.ar      1 <0>        -0.0449
      3 C3          4.1739    1.9080    1.4895 C.ar      1 <0>        -0.0978
      4 C4          3.4604    2.2723    0.3553 C.ar      1 <0>         0.1459
      5 C5          3.8959    3.3366   -0.4240 C.ar      1 <0>        -0.1040
      6 C6          5.0304    4.0361   -0.0629 C.ar      1 <0>        -0.0760
      7 C7          5.7397    3.6705    1.0677 C.ar      1 <0>        -0.0848
      8 Br1         7.2973    4.6260    1.5545 Br        1 <0>        -0.0388
      9 N1          2.3076    1.5647   -0.0054 N.pl3     1 <0>        -0.5198
     10 C8          1.0584    1.9708    0.4591 C.2       1 <0>         0.1260
     11 C9          0.0400    1.1375    0.4105 C.2       1 <0>        -0.2405
     12 C10         0.1936   -0.2543   -0.1311 C.3       1 <0>         0.1596
     13 N2          1.4226   -0.3940   -0.9019 N.2       1 <0>        -0.5720
     14 C11         2.3970    0.4592   -0.8247 C.2       1 <0>         0.4051
     15 S1          3.8551    0.2014   -1.7797 S.3       1 <0>        -0.0546
     16 C12         0.2190   -1.2448    1.0347 C.3       1 <0>        -0.1362
     17 C13        -1.0009   -0.5751   -1.0319 C.3       1 <0>        -0.1288
     18 C14         0.8734    3.3589    1.0158 C.3       1 <0>        -0.1121
     19 H1          6.8428    1.4761    2.8061 H         1 <0>         0.0826
     20 H2          6.5695    3.0939    3.4964 H         1 <0>         0.0802
     21 H3          5.4052    1.7844    3.8094 H         1 <0>         0.0737
     22 H4          3.8396    1.0786    2.0951 H         1 <0>         0.1335
     23 H5          3.3454    3.6192   -1.3091 H         1 <0>         0.1368
     24 H6          5.3670    4.8664   -0.6660 H         1 <0>         0.1410
     25 H7         -0.9272    1.4636    0.7637 H         1 <0>         0.1325
     26 H8          3.5103   -0.9991   -2.4339 H         1 <0>         0.1347
     27 H9         -0.7128   -1.1701    1.5953 H         1 <0>         0.0652
     28 H10         0.3304   -2.2579    0.6484 H         1 <0>         0.0615
     29 H11         1.0575   -1.0120    1.6910 H         1 <0>         0.0485
     30 H12        -1.0362    0.1374   -1.8560 H         1 <0>         0.0527
     31 H13        -0.8958   -1.5848   -1.4288 H         1 <0>         0.0619
     32 H14        -1.9216   -0.5065   -0.4525 H         1 <0>         0.0633
     33 H15        -0.1400    3.4629    1.4034 H         1 <0>         0.0843
     34 H16         1.5892    3.5260    1.8206 H         1 <0>         0.0736
     35 H17         1.0373    4.0919    0.2258 H         1 <0>         0.0755
@<TRIPOS>BOND
     1    1    2 1
     2    1   19 1
     3    1   20 1
     4    1   21 1
     5    2    7 ar
     6    2    3 ar
     7    3    4 ar
     8    3   22 1
     9    4    5 ar
    10    4    9 1
    11    5    6 ar
    12    5   23 1
    13    6    7 ar
    14    6   24 1
    15    7    8 1
    16    9   14 1
    17    9   10 1
    18   10   11 2
    19   10   18 1
    20   11   12 1
    21   11   25 1
    22   12   13 1
    23   12   16 1
    24   12   17 1
    25   13   14 2
    26   14   15 1
    27   15   26 1
    28   16   27 1
    29   16   28 1
    30   16   29 1
    31   17   30 1
    32   17   31 1
    33   17   32 1
    34   18   33 1
    35   18   34 1
    36   18   35 1
