@<TRIPOS>MOLECULE
ZINC13638653
   39    42     0     0     0
SMALL
USER_CHARGES
(3aS,4S,9bS)-4-(4-bromophenyl)-8-nitro-3a,4,5,9b-tetrahydro-3H-cyclopenta[c]quinolin-6-ol
@<TRIPOS>ATOM
      1 C1          1.1707    2.0860    0.0021 C.ar      1 <0>        -0.0827
      2 C2          2.3773    1.4120   -0.0132 C.ar      1 <0>        -0.0920
      3 C3          2.3966    0.0289   -0.0208 C.ar      1 <0>        -0.0849
      4 C4          1.2082   -0.6790   -0.0132 C.ar      1 <0>        -0.0908
      5 C5          0.0021   -0.0041    0.0020 C.ar      1 <0>        -0.1021
      6 C6         -0.0167    1.3782    0.0096 C.ar      1 <0>        -0.0744
      7 C7         -1.3320    2.1136    0.0199 C.3       1 <0>         0.1463
      8 H1         -2.1209    1.4586    0.3897 H         1 <0>         0.0787
      9 C8         -1.6687    2.5891   -1.3783 C.3       1 <0>        -0.0920
     10 H2         -0.9669    3.3498   -1.7201 H         1 <0>         0.1031
     11 C9         -1.9200    1.5295   -2.4571 C.3       1 <0>        -0.0871
     12 C10        -2.9021    2.2588   -3.3775 C.2       1 <0>        -0.1527
     13 C11        -3.5721    3.1761   -2.6885 C.2       1 <0>        -0.1567
     14 C12        -3.1339    3.1159   -1.2725 C.3       1 <0>        -0.0345
     15 H3         -3.7256    2.3541   -0.7648 H         1 <0>         0.0932
     16 C13        -3.0945    4.3089   -0.3986 C.ar      1 <0>        -0.1076
     17 C14        -3.9503    5.3754   -0.5877 C.ar      1 <0>        -0.0218
     18 C15        -3.9031    6.4722    0.2507 C.ar      1 <0>        -0.0632
     19 C16        -2.9906    6.5005    1.2900 C.ar      1 <0>        -0.0531
     20 C17        -2.1265    5.4412    1.4842 C.ar      1 <0>         0.0697
     21 C18        -2.1590    4.3267    0.6367 C.ar      1 <0>         0.1738
     22 N1         -1.2311    3.3103    0.8706 N.pl3     1 <0>        -0.6199
     23 O1         -1.2344    5.4803    2.5101 O.3       1 <0>        -0.4739
     24 N2         -4.8242    7.6110    0.0384 N.pl3     1 <0>         0.0346
     25 O2         -5.6267    7.5826   -0.8775 O.2       1 <0>        -0.1619
     26 O3         -4.7799    8.5765    0.7795 O.3       1 <0>        -0.1620
     27 Br1         4.0470   -0.8939   -0.0422 Br        1 <0>        -0.0467
     28 H4          1.1556    3.1659    0.0077 H         1 <0>         0.1386
     29 H5          3.3049    1.9650   -0.0187 H         1 <0>         0.1345
     30 H6          1.2227   -1.7589   -0.0195 H         1 <0>         0.1352
     31 H7         -0.9258   -0.5567    0.0076 H         1 <0>         0.1316
     32 H8         -0.9988    1.2828   -2.9851 H         1 <0>         0.0797
     33 H9         -2.3748    0.6361   -2.0293 H         1 <0>         0.0844
     34 H10        -3.0316    2.0571   -4.4306 H         1 <0>         0.1358
     35 H11        -4.3117    3.8520   -3.0916 H         1 <0>         0.1367
     36 H12        -4.6631    5.3522   -1.3988 H         1 <0>         0.1559
     37 H13        -2.9537    7.3537    1.9511 H         1 <0>         0.1610
     38 H14        -1.2091    3.0587    1.8475 H         1 <0>         0.3775
     39 H15        -1.5686    5.1056    3.3365 H         1 <0>         0.3898
@<TRIPOS>BOND
     1    1    6 ar
     2    1    2 ar
     3    1   28 1
     4    2    3 ar
     5    2   29 1
     6    3    4 ar
     7    3   27 1
     8    4    5 ar
     9    4   30 1
    10    5    6 ar
    11    5   31 1
    12    6    7 1
    13    7    8 1
    14    7   22 1
    15    7    9 1
    16    9   10 1
    17    9   14 1
    18    9   11 1
    19   11   12 1
    20   11   32 1
    21   11   33 1
    22   12   13 2
    23   12   34 1
    24   13   14 1
    25   13   35 1
    26   14   15 1
    27   14   16 1
    28   16   21 ar
    29   16   17 ar
    30   17   18 ar
    31   17   36 1
    32   18   19 ar
    33   18   24 1
    34   19   20 ar
    35   19   37 1
    36   20   21 ar
    37   20   23 1
    38   21   22 1
    39   22   38 1
    40   23   39 1
    41   24   25 2
    42   24   26 1
