@<TRIPOS>MOLECULE
ZINC10038491
   41    42     0     0     0
SMALL
USER_CHARGES
N-[2-(3-bromophenyl)sulfanyl-1-morpholinocarbonyl-ethyl]acetamide
@<TRIPOS>ATOM
      1 C1         -1.1058    8.2866    3.7068 C.3       1 <0>        -0.1718
      2 C2         -1.7695    7.7164    2.4798 C.2       1 <0>         0.5210
      3 O1         -2.6732    6.9159    2.5959 O.2       1 <0>        -0.5153
      4 N1         -1.3590    8.0962    1.2536 N.am      1 <0>        -0.7228
      5 C3         -2.0043    7.5419    0.0608 C.3       1 <0>         0.1554
      6 H1         -1.5415    7.9633   -0.8316 H         1 <0>         0.1190
      7 C4         -1.8385    6.0209    0.0516 C.3       1 <0>        -0.1337
      8 S1         -0.0729    5.6052    0.0323 S.3       1 <0>        -0.0805
      9 C5         -0.0500    3.8433    0.0232 C.ar      1 <0>        -0.0809
     10 C6          1.1619    3.1626    0.0079 C.ar      1 <0>        -0.0844
     11 C7          1.1766    1.7820    0.0004 C.ar      1 <0>        -0.0922
     12 C8         -0.0126    1.0758    0.0080 C.ar      1 <0>        -0.0951
     13 C9         -1.2211    1.7497    0.0174 C.ar      1 <0>        -0.0703
     14 C10        -1.2430    3.1314    0.0307 C.ar      1 <0>        -0.1048
     15 Br1        -2.8439    0.7791    0.0192 Br        1 <0>        -0.0420
     16 C11        -3.4711    7.8873    0.0769 C.2       1 <0>         0.5110
     17 O2         -4.0094    8.1986    1.1181 O.2       1 <0>        -0.4939
     18 N2         -4.1846    7.8503   -1.0659 N.am      1 <0>        -0.6176
     19 C12        -3.5520    7.4815   -2.3423 C.3       1 <0>         0.0655
     20 C13        -4.4066    6.3874   -3.0021 C.3       1 <0>         0.0461
     21 O3         -5.7640    6.8307   -3.0716 O.3       1 <0>        -0.3751
     22 C14        -6.3706    7.0602   -1.7976 C.3       1 <0>         0.0469
     23 C15        -5.6179    8.1833   -1.0751 C.3       1 <0>         0.0785
     24 H2         -1.2238    9.3702    3.7134 H         1 <0>         0.0876
     25 H3         -1.5685    7.8652    4.5992 H         1 <0>         0.0928
     26 H4         -0.0449    8.0368    3.6952 H         1 <0>         0.0891
     27 H5         -0.6363    8.7365    1.1608 H         1 <0>         0.4097
     28 H6         -2.3186    5.6085   -0.8359 H         1 <0>         0.0977
     29 H7         -2.3013    5.5996    0.9440 H         1 <0>         0.1202
     30 H8          2.0910    3.7131    0.0017 H         1 <0>         0.1362
     31 H9          2.1180    1.2528   -0.0118 H         1 <0>         0.1402
     32 H10         0.0021   -0.0041    0.0020 H         1 <0>         0.1375
     33 H11        -2.1864    3.6572    0.0426 H         1 <0>         0.1304
     34 H12        -3.5021    8.3545   -2.9930 H         1 <0>         0.0858
     35 H13        -2.5468    7.1025   -2.1579 H         1 <0>         0.0932
     36 H14        -4.3520    5.4732   -2.4111 H         1 <0>         0.0567
     37 H15        -4.0351    6.1932   -4.0083 H         1 <0>         0.1105
     38 H16        -6.3232    6.1485   -1.2022 H         1 <0>         0.0576
     39 H17        -7.4118    7.3509   -1.9372 H         1 <0>         0.1100
     40 H18        -5.9814    8.2693   -0.0511 H         1 <0>         0.1030
     41 H19        -5.7723    9.1262   -1.5998 H         1 <0>         0.0788
@<TRIPOS>BOND
     1    1    2 1
     2    1   24 1
     3    1   25 1
     4    1   26 1
     5    2    3 2
     6    2    4 am
     7    4    5 1
     8    4   27 1
     9    5    6 1
    10    5    7 1
    11    5   16 1
    12    7    8 1
    13    7   28 1
    14    7   29 1
    15    8    9 1
    16    9   14 ar
    17    9   10 ar
    18   10   11 ar
    19   10   30 1
    20   11   12 ar
    21   11   31 1
    22   12   13 ar
    23   12   32 1
    24   13   14 ar
    25   13   15 1
    26   14   33 1
    27   16   17 2
    28   16   18 am
    29   18   23 1
    30   18   19 1
    31   19   20 1
    32   19   34 1
    33   19   35 1
    34   20   21 1
    35   20   36 1
    36   20   37 1
    37   21   22 1
    38   22   23 1
    39   22   38 1
    40   22   39 1
    41   23   40 1
    42   23   41 1
