@<TRIPOS>MOLECULE
ZINC05317552
   32    32     0     0     0
SMALL
NO_CHARGES

@<TRIPOS>ATOM
      1 C1          0.0861    1.2003    0.1613 C.3       1 <0>        -0.1615
      2 C2          0.1260   -0.3233    0.0264 C.3       1 <0>        -0.1503
      3 C3          0.8058   -0.7010   -1.2912 C.3       1 <0>         0.1334
      4 C4          0.1101    0.0224   -2.4404 C.3       1 <0>        -0.1561
      5 C5          0.9426   -0.1080   -3.7194 C.3       1 <0>        -0.0444
      6 H1          0.4609    0.4432   -4.5270 H         1 <0>         0.1035
      7 S1          1.0554   -1.8674   -4.1642 S.3       1 <0>        -0.2641
      8 C6          1.6472   -2.6420   -2.6294 C.3       1 <0>        -0.0391
      9 H2          2.6674   -2.3170   -2.4256 H         1 <0>         0.0979
     10 C7          0.7318   -2.2134   -1.4788 C.3       1 <0>        -0.0734
     11 H3          1.0487   -2.7079   -0.5606 H         1 <0>         0.0846
     12 C8         -0.7092   -2.6157   -1.7990 C.3       1 <0>        -0.1596
     13 C9          1.6134   -4.1645   -2.7768 C.3       1 <0>        -0.1381
     14 C10         2.3447    0.4549   -3.4788 C.3       1 <0>        -0.1492
     15 O1          2.1765   -0.2994   -1.2450 O.3       1 <0>        -0.5532
     16 H4          1.1030    1.5926    0.1515 H         1 <0>         0.0543
     17 H5         -0.4749    1.6242   -0.6716 H         1 <0>         0.0616
     18 H6         -0.3982    1.4693    1.1000 H         1 <0>         0.0605
     19 H7          0.6871   -0.7472    0.8593 H         1 <0>         0.0726
     20 H8         -0.8908   -0.7157    0.0362 H         1 <0>         0.0752
     21 H9         -0.8738   -0.4179   -2.6025 H         1 <0>         0.0895
     22 H10        -0.0037    1.0767   -2.1885 H         1 <0>         0.0819
     23 H11        -1.0301   -2.1192   -2.7147 H         1 <0>         0.0785
     24 H12        -0.7635   -3.6960   -1.9333 H         1 <0>         0.0652
     25 H13        -1.3606   -2.3185   -0.9771 H         1 <0>         0.0570
     26 H14         2.2561   -4.4638   -3.6047 H         1 <0>         0.0640
     27 H15         1.9685   -4.6267   -1.8557 H         1 <0>         0.0698
     28 H16         0.5914   -4.4878   -2.9749 H         1 <0>         0.0674
     29 H17         2.9480   -0.2850   -2.9527 H         1 <0>         0.0927
     30 H18         2.8110    0.6900   -4.4355 H         1 <0>         0.0507
     31 H19         2.2742    1.3608   -2.8766 H         1 <0>         0.0535
     32 H20         2.3039    0.6506   -1.1175 H         1 <0>         0.3754
@<TRIPOS>BOND
     1    1    2 1
     2    1   16 1
     3    1   17 1
     4    1   18 1
     5    2    3 1
     6    2   19 1
     7    2   20 1
     8    3   10 1
     9    3    4 1
    10    3   15 1
    11    4    5 1
    12    4   21 1
    13    4   22 1
    14    5    6 1
    15    5    7 1
    16    5   14 1
    17    7    8 1
    18    8    9 1
    19    8   10 1
    20    8   13 1
    21   10   11 1
    22   10   12 1
    23   12   23 1
    24   12   24 1
    25   12   25 1
    26   13   26 1
    27   13   27 1
    28   13   28 1
    29   14   29 1
    30   14   30 1
    31   14   31 1
    32   15   32 1
