@<TRIPOS>MOLECULE
ZINC51691365
   28    30     0     0     0
SMALL
USER_CHARGES

@<TRIPOS>ATOM
      1 C1         -0.0187    1.5247    0.0104 C.3       1 <0>        -0.1164
      2 C2          1.4025    2.0954   -0.0001 C.3       1 <0>        -0.0504
      3 C3          2.1438    1.5433    1.2084 C.2       1 <0>         0.1598
      4 C4          1.7613    0.3030    1.7310 C.2       1 <0>        -0.3457
      5 S1          2.8787    0.1072    3.0847 S.3       1 <0>         0.2332
      6 C5          3.7176    1.5572    2.8890 C.2       1 <0>         0.0705
      7 N1          3.1387    2.1135    1.8463 N.2       1 <0>        -0.5249
      8 C6          4.8606    2.0902    3.7139 C.3       1 <0>        -0.0416
      9 H1          5.1986    3.0524    3.3293 H         1 <0>         0.1242
     10 C7          4.4572    2.2036    5.2093 C.3       1 <0>        -0.1505
     11 C8          5.8349    2.0377    5.8989 C.3       1 <0>         0.0519
     12 O1          6.5414    1.0763    5.0989 O.3       1 <0>        -0.3750
     13 C9          6.0246    1.0771    3.7593 C.3       1 <0>         0.0602
     14 C10         0.7394   -0.5050    1.2309 C.2       1 <0>         0.4387
     15 O2          0.4520   -1.5615    1.7559 O.2       1 <0>        -0.4561
     16 C11         0.0021   -0.0041    0.0020 C.3       1 <0>        -0.1538
     17 H2         -0.5363    1.8704    0.9052 H         1 <0>         0.0723
     18 H3         -0.5532    1.8800   -0.8706 H         1 <0>         0.0911
     19 H4          1.9134    1.7937   -0.9145 H         1 <0>         0.0979
     20 H5          1.3627    3.1831    0.0580 H         1 <0>         0.0968
     21 H6          4.0242    3.1800    5.4265 H         1 <0>         0.0979
     22 H7          3.7762    1.4017    5.4944 H         1 <0>         0.0847
     23 H8          6.3696    2.9875    5.9091 H         1 <0>         0.0704
     24 H9          5.7069    1.6637    6.9147 H         1 <0>         0.0956
     25 H10         5.6592    0.0824    3.5041 H         1 <0>         0.0740
     26 H11         6.8036    1.3772    3.0585 H         1 <0>         0.0855
     27 H12        -1.0204   -0.3816    0.0123 H         1 <0>         0.1035
     28 H13         0.5108   -0.3559   -0.8955 H         1 <0>         0.1063
@<TRIPOS>BOND
     1    1   16 1
     2    1    2 1
     3    1   17 1
     4    1   18 1
     5    2    3 1
     6    2   19 1
     7    2   20 1
     8    3    7 1
     9    3    4 2
    10    4    5 1
    11    4   14 1
    12    5    6 1
    13    6    7 2
    14    6    8 1
    15    8    9 1
    16    8   13 1
    17    8   10 1
    18   10   11 1
    19   10   21 1
    20   10   22 1
    21   11   12 1
    22   11   23 1
    23   11   24 1
    24   12   13 1
    25   13   25 1
    26   13   26 1
    27   14   15 2
    28   14   16 1
    29   16   27 1
    30   16   28 1
