@<TRIPOS>MOLECULE
ZINC34913336
   52    56     0     0     0
SMALL
USER_CHARGES

@<TRIPOS>ATOM
      1 C1          1.1528    1.4197    0.2003 C.3       1 <0>        -0.1128
      2 C2          0.8476   -0.0551    0.1465 C.2       1 <0>        -0.0588
      3 C3          0.9127   -0.7446   -1.0769 C.2       1 <0>        -0.1479
      4 C4          0.6405   -2.0642   -1.1300 C.2       1 <0>         0.0901
      5 N1          0.2977   -2.7509    0.0023 N.pl3     1 <0>        -0.3551
      6 C5          0.2261   -2.1039    1.2132 C.2       1 <0>         0.2403
      7 C6          0.5138   -0.7243    1.2819 C.2       1 <0>        -0.0944
      8 N2         -0.1224   -2.9817    2.1404 N.2       1 <0>        -0.4649
      9 C7         -0.2820   -4.1890    1.5711 C.2       1 <0>         0.0991
     10 C8         -0.0213   -4.0631    0.2226 C.2       1 <0>         0.1685
     11 N3         -0.0737   -5.0786   -0.7335 N.am      1 <0>        -0.6333
     12 C9         -0.6235   -4.8399   -1.9407 C.2       1 <0>         0.5314
     13 O1         -0.9857   -3.7192   -2.2313 O.2       1 <0>        -0.4986
     14 C10        -0.7882   -5.9652   -2.9294 C.3       1 <0>        -0.1848
     15 H1         -0.0049   -6.7229   -2.9141 H         1 <0>         0.1317
     16 C11        -2.2126   -6.4279   -3.2422 C.3       1 <0>        -0.1425
     17 C12        -1.4210   -5.6305   -4.2817 C.3       1 <0>        -0.0752
     18 H2         -1.0541   -6.1683   -5.1559 H         1 <0>         0.1248
     19 C13        -1.8317   -4.2008   -4.5229 C.ar      1 <0>        -0.0548
     20 C14        -2.7609   -3.5995   -3.6946 C.ar      1 <0>        -0.0534
     21 C15        -3.1377   -2.2880   -3.9159 C.ar      1 <0>        -0.1252
     22 C16        -2.5850   -1.5777   -4.9651 C.ar      1 <0>        -0.1157
     23 C17        -1.6551   -2.1787   -5.7928 C.ar      1 <0>        -0.1292
     24 C18        -1.2751   -3.4888   -5.5689 C.ar      1 <0>        -0.1100
     25 C19        -0.6697   -5.4369    2.2701 C.ar      1 <0>        -0.0163
     26 C20        -1.6667   -6.2555    1.7400 C.ar      1 <0>        -0.0964
     27 C21        -2.0230   -7.4163    2.3951 C.ar      1 <0>        -0.1265
     28 C22        -1.3937   -7.7687    3.5759 C.ar      1 <0>        -0.1076
     29 C23        -0.4042   -6.9609    4.1065 C.ar      1 <0>        -0.1223
     30 C24        -0.0352   -5.8002    3.4572 C.ar      1 <0>        -0.0513
     31 C25         1.0471   -4.9241    4.0335 C.3       1 <0>        -0.1081
     32 H3          2.2181    1.5639    0.3802 H         1 <0>         0.0773
     33 H4          0.8785    1.8823   -0.7478 H         1 <0>         0.0721
     34 H5          0.5825    1.8796    1.0073 H         1 <0>         0.0729
     35 H6          1.1817   -0.2147   -1.9787 H         1 <0>         0.1485
     36 H7          0.6932   -2.5838   -2.0754 H         1 <0>         0.1659
     37 H8          0.4656   -0.2039    2.2271 H         1 <0>         0.1518
     38 H9          0.2856   -5.9561   -0.5292 H         1 <0>         0.4210
     39 H10        -2.3663   -7.4900   -3.4330 H         1 <0>         0.1147
     40 H11        -3.0306   -5.9184   -2.7328 H         1 <0>         0.1051
     41 H12        -3.1927   -4.1544   -2.8749 H         1 <0>         0.1087
     42 H13        -3.8641   -1.8184   -3.2692 H         1 <0>         0.1137
     43 H14        -2.8799   -0.5533   -5.1384 H         1 <0>         0.1161
     44 H15        -1.2235   -1.6238   -6.6127 H         1 <0>         0.1178
     45 H16        -0.5459   -3.9572   -6.2133 H         1 <0>         0.1162
     46 H17        -2.1591   -5.9811    0.8188 H         1 <0>         0.1190
     47 H18        -2.7950   -8.0509    1.9856 H         1 <0>         0.1246
     48 H19        -1.6765   -8.6779    4.0855 H         1 <0>         0.1240
     49 H20         0.0835   -7.2410    5.0284 H         1 <0>         0.1256
     50 H21         0.5944   -4.1336    4.6320 H         1 <0>         0.0790
     51 H22         1.7044   -5.5247    4.6624 H         1 <0>         0.0610
     52 H23         1.6255   -4.4805    3.2231 H         1 <0>         0.0641
@<TRIPOS>BOND
     1    1    2 1
     2    1   32 1
     3    1   33 1
     4    1   34 1
     5    2    7 2
     6    2    3 1
     7    3    4 2
     8    3   35 1
     9    4    5 1
    10    4   36 1
    11    5   10 1
    12    5    6 1
    13    6    7 1
    14    6    8 2
    15    7   37 1
    16    8    9 1
    17    9   10 2
    18    9   25 1
    19   10   11 1
    20   11   12 am
    21   11   38 1
    22   12   13 2
    23   12   14 1
    24   14   15 1
    25   14   17 1
    26   14   16 1
    27   16   17 1
    28   16   39 1
    29   16   40 1
    30   17   18 1
    31   17   19 1
    32   19   24 ar
    33   19   20 ar
    34   20   21 ar
    35   20   41 1
    36   21   22 ar
    37   21   42 1
    38   22   23 ar
    39   22   43 1
    40   23   24 ar
    41   23   44 1
    42   24   45 1
    43   25   30 ar
    44   25   26 ar
    45   26   27 ar
    46   26   46 1
    47   27   28 ar
    48   27   47 1
    49   28   29 ar
    50   28   48 1
    51   29   30 ar
    52   29   49 1
    53   30   31 1
    54   31   50 1
    55   31   51 1
    56   31   52 1
