@<TRIPOS>MOLECULE
ZINC28057990
   50    55     0     0     0
SMALL
USER_CHARGES
(3-bromophenyl)-(2-methoxyphenyl)BLAH
@<TRIPOS>ATOM
      1 C1          2.7913    2.9914   -0.7153 C.3       1 <0>         0.0222
      2 O1          1.6727    3.8416   -0.4549 O.3       1 <0>        -0.3158
      3 C2          0.4683    3.2387   -0.2741 C.ar      1 <0>         0.1550
      4 C3          0.3652    1.8569   -0.3458 C.ar      1 <0>        -0.2056
      5 C4         -0.8600    1.2464   -0.1613 C.ar      1 <0>        -0.0611
      6 C5         -1.9842    2.0116    0.0896 C.ar      1 <0>        -0.1513
      7 C6         -1.8832    3.3882    0.1669 C.ar      1 <0>        -0.0491
      8 C7         -0.6599    4.0036   -0.0170 C.ar      1 <0>        -0.1364
      9 C8         -0.5514    5.5046    0.0621 C.3       1 <0>         0.2741
     10 H1          0.4783    5.8322   -0.1440 H         1 <0>         0.1247
     11 C9         -0.9758    5.9650    1.4348 C.2       1 <0>        -0.2482
     12 C10        -2.1281    6.6030    1.6499 C.2       1 <0>         0.2262
     13 C11        -2.4475    7.0362    3.0312 C.ar      1 <0>        -0.1403
     14 C12        -3.7381    7.3947    3.4000 C.ar      1 <0>        -0.0659
     15 C13        -3.9888    7.7949    4.6986 C.ar      1 <0>        -0.1389
     16 C14        -2.9627    7.8389    5.6265 C.ar      1 <0>        -0.0649
     17 C15        -1.6751    7.4824    5.2677 C.ar      1 <0>        -0.1397
     18 C16        -1.4104    7.0791    3.9722 C.ar      1 <0>         0.1480
     19 O2         -0.1620    6.7165    3.5823 O.3       1 <0>        -0.2936
     20 C17        -0.0621    5.6806    2.6054 C.3       1 <0>         0.2126
     21 H2          0.9889    5.6757    2.2809 H         1 <0>         0.1388
     22 C18        -0.4518    4.3668    3.2324 C.ar      1 <0>        -0.1042
     23 C19         0.3285    3.2442    3.0262 C.ar      1 <0>        -0.0762
     24 C20        -0.0253    2.0402    3.6056 C.ar      1 <0>        -0.1075
     25 C21        -1.1658    1.9554    4.3823 C.ar      1 <0>        -0.0827
     26 C22        -1.9497    3.0768    4.5841 C.ar      1 <0>        -0.0867
     27 C23        -1.5920    4.2830    4.0086 C.ar      1 <0>        -0.0831
     28 Br1        -3.5102    2.9614    5.6459 Br        1 <0>        -0.0468
     29 N1         -3.0302    6.8858    0.6173 N.pl3     1 <0>        -0.6301
     30 C24        -2.5718    6.7441   -0.6821 C.2       1 <0>         0.4795
     31 N2         -1.4043    6.1043   -0.9541 N.pl3     1 <0>        -0.3957
     32 N3         -1.2595    6.1685   -2.3393 N.2       1 <0>        -0.0589
     33 N4         -2.2945    6.8017   -2.7889 N.2       1 <0>        -0.0248
     34 N5         -3.0707    7.1414   -1.8171 N.2       1 <0>        -0.3457
     35 H3          3.6962    3.6041   -0.8407 H         1 <0>         0.1061
     36 H4          2.6081    2.4156   -1.6345 H         1 <0>         0.0599
     37 H5          2.9307    2.3000    0.1288 H         1 <0>         0.0591
     38 H6          1.2422    1.2591   -0.5455 H         1 <0>         0.1337
     39 H7         -0.9409    0.1709   -0.2174 H         1 <0>         0.1284
     40 H8         -2.9421    1.5327    0.2296 H         1 <0>         0.1250
     41 H9         -2.7619    3.9833    0.3670 H         1 <0>         0.1155
     42 H10        -4.5397    7.3606    2.6770 H         1 <0>         0.1291
     43 H11        -4.9902    8.0743    4.9911 H         1 <0>         0.1355
     44 H12        -3.1690    8.1537    6.6388 H         1 <0>         0.1384
     45 H13        -0.8795    7.5189    5.9972 H         1 <0>         0.1423
     46 H14         1.2170    3.3090    2.4156 H         1 <0>         0.1268
     47 H15         0.5868    1.1645    3.4480 H         1 <0>         0.1329
     48 H16        -1.4448    1.0135    4.8311 H         1 <0>         0.1333
     49 H17        -2.2037    5.1590    4.1663 H         1 <0>         0.1380
     50 H18        -4.0555    7.2057    0.8549 H         1 <0>         0.4685
@<TRIPOS>BOND
     1    1    2 1
     2    1   35 1
     3    1   36 1
     4    1   37 1
     5    2    3 1
     6    3    8 ar
     7    3    4 ar
     8    4    5 ar
     9    4   38 1
    10    5    6 ar
    11    5   39 1
    12    6    7 ar
    13    6   40 1
    14    7    8 ar
    15    7   41 1
    16    8    9 1
    17    9   10 1
    18    9   31 1
    19    9   11 1
    20   11   20 1
    21   11   12 2
    22   12   13 1
    23   12   29 1
    24   13   18 ar
    25   13   14 ar
    26   14   15 ar
    27   14   42 1
    28   15   16 ar
    29   15   43 1
    30   16   17 ar
    31   16   44 1
    32   17   18 ar
    33   17   45 1
    34   18   19 1
    35   19   20 1
    36   20   21 1
    37   20   22 1
    38   22   27 ar
    39   22   23 ar
    40   23   24 ar
    41   23   46 1
    42   24   25 ar
    43   24   47 1
    44   25   26 ar
    45   25   48 1
    46   26   27 ar
    47   26   28 1
    48   27   49 1
    49   29   30 1
    50   29   50 1
    51   30   34 2
    52   30   31 1
    53   31   32 1
    54   32   33 2
    55   33   34 1
