@<TRIPOS>MOLECULE
ZINC06694615
   40    42     0     0     0
SMALL
USER_CHARGES
[[(2S)-1-(6-chloro-3-hydroxy-quinoxalin-2-yl)-2-hydroxy-2-(2-hydroxyphenyl)ethylidene]amino]thiourea
@<TRIPOS>ATOM
      1 C1          2.2726   -1.8629   -2.1145 C.ar      1 <0>        -0.1753
      2 C2          2.9038   -2.0421   -3.3318 C.ar      1 <0>        -0.0729
      3 C3          4.2269   -1.6766   -3.4854 C.ar      1 <0>        -0.1706
      4 C4          4.9211   -1.1239   -2.4187 C.ar      1 <0>         0.1614
      5 C5          4.2872   -0.9500   -1.1972 C.ar      1 <0>        -0.1762
      6 C6          2.9635   -1.3173   -1.0486 C.ar      1 <0>        -0.0095
      7 C7          5.0398   -0.3553   -0.0349 C.3       1 <0>         0.1838
      8 H1          6.0702   -0.7385    0.0021 H         1 <0>         0.0480
      9 C8          5.0294    1.1476   -0.1459 C.2       1 <0>         0.1632
     10 N1          6.1452    1.7955   -0.2977 N.2       1 <0>        -0.1985
     11 N2          7.3430    1.0934   -0.4851 N.pl3     1 <0>        -0.5685
     12 C9          8.4835    1.7634   -0.7434 C.2       1 <0>         0.6213
     13 S1          9.9472    0.9055   -0.9723 S.2       1 <0>        -0.6721
     14 N3          8.4718    3.1089   -0.8214 N.pl3     1 <0>        -0.8005
     15 C10         3.7554    1.8812   -0.0822 C.ar      1 <0>         0.0595
     16 C11         3.7495    3.2946   -0.1869 C.ar      1 <0>         0.4140
     17 N4          2.6167    3.9610   -0.1313 N.ar      1 <0>        -0.5562
     18 C12         1.4605    3.3003    0.0252 C.ar      1 <0>         0.1851
     19 C13         0.2400    3.9912    0.0867 C.ar      1 <0>        -0.1184
     20 C14        -0.9228    3.2981    0.2458 C.ar      1 <0>         0.0061
     21 C15        -0.9201    1.9071    0.3439 C.ar      1 <0>        -0.1704
     22 C16         0.2447    1.2050    0.2937 C.ar      1 <0>        -0.0203
     23 C17         1.4640    1.8866    0.1302 C.ar      1 <0>        -0.0299
     24 N5          2.6207    1.2181    0.0725 N.ar      1 <0>        -0.3593
     25 Cl1        -2.4288    4.1585    0.3204 Cl        1 <0>        -0.0844
     26 O1          4.9173    3.9631   -0.3447 O.3       1 <0>        -0.6443
     27 O2          4.4138   -0.7469    1.1885 O.3       1 <0>        -0.5530
     28 O3          6.2213   -0.7582   -2.5689 O.3       1 <0>        -0.5044
     29 H2          1.2380   -2.1493   -1.9964 H         1 <0>         0.1226
     30 H3          2.3618   -2.4686   -4.1629 H         1 <0>         0.1254
     31 H4          4.7195   -1.8171   -4.4362 H         1 <0>         0.1274
     32 H5          2.4684   -1.1783   -0.0990 H         1 <0>         0.1449
     33 H6          7.3526   -0.0047   -0.4214 H         1 <0>         0.4109
     34 H7          9.4027    3.6557   -1.0322 H         1 <0>         0.4520
     35 H8          7.5314    3.6602   -0.6742 H         1 <0>         0.4537
     36 H9          0.2224    5.0682    0.0078 H         1 <0>         0.1354
     37 H10        -1.8549    1.3799    0.4650 H         1 <0>         0.1287
     38 H11         0.2324    0.1281    0.3746 H         1 <0>         0.1317
     39 H12         4.8251   -0.4066    2.1503 H         1 <0>         0.4105
     40 H13         6.7707   -0.3201   -1.7226 H         1 <0>         0.3989
@<TRIPOS>BOND
     1    1    6 ar
     2    1    2 ar
     3    1   29 1
     4    2    3 ar
     5    2   30 1
     6    3    4 ar
     7    3   31 1
     8    4    5 ar
     9    4   28 1
    10    5    6 ar
    11    5    7 1
    12    6   32 1
    13    7    8 1
    14    7    9 1
    15    7   27 1
    16    9   10 2
    17    9   15 1
    18   10   11 1
    19   11   12 1
    20   11   33 1
    21   12   13 2
    22   12   14 1
    23   14   34 1
    24   14   35 1
    25   15   24 ar
    26   15   16 ar
    27   16   17 ar
    28   16   26 1
    29   17   18 ar
    30   18   23 ar
    31   18   19 ar
    32   19   20 ar
    33   19   36 1
    34   20   21 ar
    35   20   25 1
    36   21   22 ar
    37   21   37 1
    38   22   23 ar
    39   22   38 1
    40   23   24 ar
    41   27   39 1
    42   28   40 1
