@<TRIPOS>MOLECULE
ZINC09015854
   47    51     0     0     0
SMALL
USER_CHARGES
(2-chlorophenyl)methylsulfanyl-(3-pyridyl)BLAHol
@<TRIPOS>ATOM
      1 C1          7.0012    2.1937    8.6621 C.ar      1 <0>        -0.1143
      2 C2          6.6063    3.3511    9.3072 C.ar      1 <0>        -0.0971
      3 C3          5.9537    4.3459    8.6043 C.ar      1 <0>        -0.1103
      4 C4          5.7001    4.1858    7.2534 C.ar      1 <0>        -0.0185
      5 C5          6.0908    3.0254    6.6097 C.ar      1 <0>        -0.0737
      6 C6          6.7440    2.0311    7.3138 C.ar      1 <0>        -0.0860
      7 C7          5.8099    2.8478    5.1398 C.3       1 <0>        -0.0730
      8 S1          4.1931    2.0539    4.9248 S.3       1 <0>         0.0423
      9 C8          4.0139    1.9182    3.1772 C.2       1 <0>         0.2080
     10 N1          4.9068    2.3292    2.2747 N.2       1 <0>        -0.4903
     11 C9          4.4597    2.0779    1.0505 C.2       1 <0>         0.4458
     12 N2          3.2424    1.4883    1.1872 N.pl3     1 <0>        -0.3953
     13 N3          2.9793    1.3967    2.5565 N.2       1 <0>        -0.2470
     14 C10         2.4992    1.0940   -0.0159 C.3       1 <0>         0.2378
     15 H1          2.3118    0.0216    0.0367 H         1 <0>         0.1273
     16 C11         3.1747    1.3875   -1.3421 C.3       1 <0>        -0.1542
     17 C12         2.5726    1.0627   -2.4936 C.2       1 <0>         0.3354
     18 C13         3.2221    1.3462   -3.8222 C.3       1 <0>        -0.1325
     19 C14         4.7444    1.3022   -3.6617 C.3       1 <0>        -0.1240
     20 C15         5.1607    2.3188   -2.5951 C.3       1 <0>        -0.0898
     21 C16         4.4425    2.0050   -1.3048 C.2       1 <0>         0.2568
     22 N4          5.0037    2.3094   -0.1644 N.2       1 <0>        -0.4566
     23 O1          1.3612    0.4697   -2.4625 O.2       1 <0>        -0.4973
     24 C17         1.1689    1.8018    0.0006 C.ar      1 <0>        -0.1710
     25 C18        -0.0126    1.0758    0.0080 C.ar      1 <0>        -0.0132
     26 C19        -1.2130    1.7692    0.0173 C.ar      1 <0>        -0.1672
     27 C20        -1.1924    3.1512    0.0299 C.ar      1 <0>         0.1146
     28 N5         -0.0496    3.8088    0.0225 N.ar      1 <0>        -0.4778
     29 C21         1.1109    3.1824    0.0081 C.ar      1 <0>         0.1111
     30 Cl1         4.8867    5.4382    6.3682 Cl        1 <0>        -0.0566
     31 H2          7.5112    1.4165    9.2118 H         1 <0>         0.1341
     32 H3          6.8083    3.4778   10.3605 H         1 <0>         0.1356
     33 H4          5.6456    5.2501    9.1082 H         1 <0>         0.1377
     34 H5          7.0530    1.1270    6.8104 H         1 <0>         0.1371
     35 H6          6.5839    2.2223    4.6950 H         1 <0>         0.1094
     36 H7          5.8043    3.8219    4.6507 H         1 <0>         0.1107
     37 H8          2.9371    0.6567   -4.4881 H         1 <0>         0.1080
     38 H9          2.9211    2.3341   -4.1709 H         1 <0>         0.1144
     39 H10         5.0500    0.3028   -3.3521 H         1 <0>         0.0871
     40 H11         5.2189    1.5513   -4.6108 H         1 <0>         0.1079
     41 H12         4.8944    3.3228   -2.9255 H         1 <0>         0.1133
     42 H13         6.2375    2.2601   -2.4363 H         1 <0>         0.1232
     43 H14         2.9105    2.2994   -1.6561 H         1 <0>         0.1595
     44 H15         0.0021   -0.0041    0.0020 H         1 <0>         0.1418
     45 H16        -2.1523    1.2362    0.0191 H         1 <0>         0.1449
     46 H17        -2.1232    3.6988    0.0417 H         1 <0>         0.1639
     47 H18         2.0266    3.7551    0.0024 H         1 <0>         0.1378
@<TRIPOS>BOND
     1    1    6 ar
     2    1    2 ar
     3    1   31 1
     4    2    3 ar
     5    2   32 1
     6    3    4 ar
     7    3   33 1
     8    4    5 ar
     9    4   30 1
    10    5    6 ar
    11    5    7 1
    12    6   34 1
    13    7    8 1
    14    7   35 1
    15    7   36 1
    16    8    9 1
    17    9   13 2
    18    9   10 1
    19   10   11 2
    20   11   22 1
    21   11   12 1
    22   12   13 1
    23   12   14 1
    24   14   15 1
    25   14   16 1
    26   14   24 1
    27   16   21 1
    28   16   43 1
    29   16   17 1
    30   17   18 1
    31   17   23 2
    32   18   19 1
    33   18   38 1
    34   18   37 1
    35   19   20 1
    36   19   39 1
    37   19   40 1
    38   20   21 1
    39   20   41 1
    40   20   42 1
    41   21   22 2
    42   24   29 ar
    43   24   25 ar
    44   25   26 ar
    45   25   44 1
    46   26   27 ar
    47   26   45 1
    48   27   28 ar
    49   27   46 1
    50   28   29 ar
    51   29   47 1
