@<TRIPOS>MOLECULE
ZINC41670006
   36    38     0     0     0
SMALL
USER_CHARGES

@<TRIPOS>ATOM
      1 C1         -0.2511    0.5764    0.1363 C.ar      1 <0>        -0.1343
      2 C2          0.7471    1.4436    0.5391 C.ar      1 <0>        -0.1234
      3 C3          2.0720    1.0574    0.4594 C.ar      1 <0>        -0.1065
      4 C4          2.3986   -0.1963   -0.0227 C.ar      1 <0>        -0.0443
      5 C5          1.4004   -1.0639   -0.4247 C.ar      1 <0>        -0.1009
      6 C6          0.0756   -0.6772   -0.3463 C.ar      1 <0>        -0.1248
      7 C7          3.8431   -0.6170   -0.1105 C.3       1 <0>         0.1675
      8 C8          4.0185   -1.5994   -1.2702 C.3       1 <0>        -0.1481
      9 C9          4.3747   -3.0462   -0.9228 C.3       1 <0>        -0.1741
     10 C10         5.4288   -2.1266   -1.5423 C.3       1 <0>        -0.1726
     11 C11         4.2515   -1.2831    1.1782 C.2       1 <0>         0.5141
     12 O1          3.5768   -2.1893    1.6365 O.co2     1 <0>        -0.6654
     13 O2          5.2566   -0.9157    1.7624 O.co2     1 <0>        -0.6830
     14 N1          4.6822    0.5621   -0.3380 N.pl3     1 <0>        -0.6997
     15 C12         4.4253    1.4033   -1.4237 C.ar      1 <0>         0.2528
     16 C13         3.4150    1.0892   -2.3236 C.ar      1 <0>        -0.1931
     17 C14         3.1635    1.9225   -3.3958 C.ar      1 <0>        -0.0429
     18 C15         3.9170    3.0691   -3.5743 C.ar      1 <0>        -0.1641
     19 C16         4.9241    3.3846   -2.6795 C.ar      1 <0>        -0.0420
     20 C17         5.1761    2.5583   -1.6020 C.ar      1 <0>        -0.2057
     21 Br1         3.5703    4.2069   -5.0443 Br        1 <0>        -0.0832
     22 H1         -1.2865    0.8765    0.2027 H         1 <0>         0.1129
     23 H2          0.4919    2.4231    0.9157 H         1 <0>         0.1133
     24 H3          2.8519    1.7352    0.7735 H         1 <0>         0.1148
     25 H4          1.6556   -2.0433   -0.8016 H         1 <0>         0.1224
     26 H5         -0.7043   -1.3549   -0.6607 H         1 <0>         0.1154
     27 H6          3.3689   -1.4331   -2.1296 H         1 <0>         0.0984
     28 H7          4.4839   -3.2983    0.1320 H         1 <0>         0.1221
     29 H8          3.9592   -3.8322   -1.5535 H         1 <0>         0.0834
     30 H9          5.7069   -2.3075   -2.5806 H         1 <0>         0.0839
     31 H10         6.2317   -1.7735   -0.8950 H         1 <0>         0.0934
     32 H11         5.4160    0.7588    0.2650 H         1 <0>         0.4101
     33 H12         2.8269    0.1940   -2.1853 H         1 <0>         0.1359
     34 H13         2.3780    1.6788   -4.0959 H         1 <0>         0.1211
     35 H14         5.5109    4.2800   -2.8215 H         1 <0>         0.1225
     36 H15         5.9594    2.8073   -0.9013 H         1 <0>         0.1243
@<TRIPOS>BOND
     1    1    6 ar
     2    1    2 ar
     3    1   22 1
     4    2    3 ar
     5    2   23 1
     6    3    4 ar
     7    3   24 1
     8    4    5 ar
     9    4    7 1
    10    5    6 ar
    11    5   25 1
    12    6   26 1
    13    7    8 1
    14    7   11 1
    15    7   14 1
    16    8   10 1
    17    8    9 1
    18    8   27 1
    19    9   10 1
    20    9   28 1
    21    9   29 1
    22   10   30 1
    23   10   31 1
    24   11   12 2
    25   11   13 1
    26   14   15 1
    27   14   32 1
    28   15   20 ar
    29   15   16 ar
    30   16   17 ar
    31   16   33 1
    32   17   18 ar
    33   17   34 1
    34   18   19 ar
    35   18   21 1
    36   19   20 ar
    37   19   35 1
    38   20   36 1
