@<TRIPOS>MOLECULE
ZINC00281860
   38    40     0     0     0
SMALL
USER_CHARGES

@<TRIPOS>ATOM
      1 C1          1.1028    1.2237   -0.6247 C.3       1 <0>        -0.1154
      2 C2          0.9613   -0.2711   -0.4961 C.ar      1 <0>        -0.0832
      3 C3          1.0773   -1.0753   -1.6147 C.ar      1 <0>        -0.1180
      4 C4          0.9476   -2.4462   -1.4968 C.ar      1 <0>        -0.1188
      5 C5          0.7022   -3.0135   -0.2600 C.ar      1 <0>        -0.1178
      6 C6          0.5870   -2.2097    0.8584 C.ar      1 <0>        -0.0942
      7 C7          0.7211   -0.8386    0.7411 C.ar      1 <0>        -0.0858
      8 C8          0.3191   -2.8280    2.2063 C.3       1 <0>        -0.0632
      9 C9          1.6479   -3.1528    2.8917 C.3       1 <0>        -0.1162
     10 H1          2.2699   -3.7725    2.2458 H         1 <0>         0.1314
     11 C10         1.4042   -3.8525    4.2443 C.3       1 <0>        -0.1511
     12 C11         2.0180   -2.9034    5.2503 C.2       1 <0>         0.5270
     13 O1          2.0459   -3.0737    6.4502 O.2       1 <0>        -0.4650
     14 N1          2.5258   -1.8459    4.6052 N.am      1 <0>        -0.5345
     15 C12         2.3757   -1.8818    3.2718 C.2       1 <0>         0.5254
     16 O2          2.7597   -1.0336    2.4956 O.2       1 <0>        -0.4442
     17 C13         3.1644   -0.7877    5.2677 C.ar      1 <0>         0.1279
     18 C14         4.3815   -0.9980    5.9019 C.ar      1 <0>        -0.0836
     19 C15         5.0093    0.0454    6.5535 C.ar      1 <0>        -0.0851
     20 C16         4.4266    1.3003    6.5749 C.ar      1 <0>        -0.0225
     21 C17         3.2128    1.5131    5.9432 C.ar      1 <0>        -0.0215
     22 C18         2.5836    0.4727    5.2853 C.ar      1 <0>        -0.0811
     23 Cl1         2.4843    3.0885    5.9718 Cl        1 <0>        -0.0334
     24 Cl2         5.2181    2.6096    7.3953 Cl        1 <0>        -0.0354
     25 H2          2.1489    1.5020   -0.4969 H         1 <0>         0.0712
     26 H3          0.7613    1.5375   -1.6111 H         1 <0>         0.0655
     27 H4          0.5006    1.7129    0.1409 H         1 <0>         0.0644
     28 H5          1.2691   -0.6321   -2.5808 H         1 <0>         0.1200
     29 H6          1.0375   -3.0743   -2.3707 H         1 <0>         0.1217
     30 H7          0.6000   -4.0847   -0.1680 H         1 <0>         0.1215
     31 H8          0.6349   -0.2108    1.6156 H         1 <0>         0.1145
     32 H9         -0.2454   -2.1274    2.8217 H         1 <0>         0.0791
     33 H10        -0.2569   -3.7444    2.0777 H         1 <0>         0.0980
     34 H11         0.3363   -3.9692    4.4289 H         1 <0>         0.1290
     35 H12         1.9072   -4.8191    4.2723 H         1 <0>         0.1291
     36 H13         4.8369   -1.9771    5.8860 H         1 <0>         0.1437
     37 H14         5.9558   -0.1184    7.0471 H         1 <0>         0.1545
     38 H15         1.6389    0.6395    4.7891 H         1 <0>         0.1459
@<TRIPOS>BOND
     1    1    2 1
     2    1   25 1
     3    1   26 1
     4    1   27 1
     5    2    7 ar
     6    2    3 ar
     7    3    4 ar
     8    3   28 1
     9    4    5 ar
    10    4   29 1
    11    5    6 ar
    12    5   30 1
    13    6    7 ar
    14    6    8 1
    15    7   31 1
    16    8    9 1
    17    8   32 1
    18    8   33 1
    19    9   10 1
    20    9   15 1
    21    9   11 1
    22   11   12 1
    23   11   34 1
    24   11   35 1
    25   12   13 2
    26   12   14 am
    27   14   15 am
    28   14   17 1
    29   15   16 2
    30   17   22 ar
    31   17   18 ar
    32   18   19 ar
    33   18   36 1
    34   19   20 ar
    35   19   37 1
    36   20   21 ar
    37   20   24 1
    38   21   22 ar
    39   21   23 1
    40   22   38 1
