@<TRIPOS>MOLECULE
ZINC02780777
   39    40     0     0     0
SMALL
USER_CHARGES
2-[2-(4-bromo-5-methyl-pyrazol-1-yl)propanoylamino]-4,5-dimethyl-thiophene-3-carboxamide
@<TRIPOS>ATOM
      1 C1         -2.5227    0.8490   -2.5538 C.3       1 <0>        -0.1007
      2 C2         -3.1033    0.4927   -1.2096 C.2       1 <0>        -0.0757
      3 C3         -4.2551   -0.1941   -1.1030 C.2       1 <0>        -0.2018
      4 S1         -4.4816   -0.3435    0.6570 S.3       1 <0>         0.2261
      5 C4         -3.0648    0.4890    1.2026 C.2       1 <0>         0.0705
      6 C5         -2.4470    0.8735    0.0184 C.2       1 <0>        -0.2248
      7 C6         -1.1873    1.6238    0.0165 C.2       1 <0>         0.5857
      8 O1         -1.2038    2.8408    0.0232 O.2       1 <0>        -0.5315
      9 N1         -0.0111    0.9658    0.0074 N.am      1 <0>        -0.8476
     10 N2         -2.6483    0.7182    2.5052 N.am      1 <0>        -0.6172
     11 C7         -3.3858    0.2646    3.5381 C.2       1 <0>         0.4972
     12 O2         -4.4136   -0.3440    3.3283 O.2       1 <0>        -0.4630
     13 C8         -2.9332    0.5137    4.9538 C.3       1 <0>         0.1561
     14 H1         -1.9553    0.0577    5.1082 H         1 <0>         0.1361
     15 C9         -2.8381    2.0206    5.2011 C.3       1 <0>        -0.1635
     16 N3         -3.8988   -0.0741    5.8857 N.pl3     1 <0>        -0.3555
     17 C10        -3.6377   -1.0322    6.8005 C.2       1 <0>         0.1256
     18 C11        -4.7900   -1.2985    7.4589 C.2       1 <0>        -0.2377
     19 C12        -5.7890   -0.4751    6.9281 C.2       1 <0>         0.0836
     20 N4         -5.2545    0.2629    5.9891 N.2       1 <0>        -0.2574
     21 Br1        -5.0105   -2.5597    8.8506 Br        1 <0>        -0.0153
     22 C13        -2.3027   -1.6871    7.0452 C.3       1 <0>        -0.1035
     23 C14        -5.1401   -0.7126   -2.2070 C.3       1 <0>        -0.0670
     24 H2         -1.8572    0.0518   -2.8849 H         1 <0>         0.0722
     25 H3         -3.3291    0.9729   -3.2766 H         1 <0>         0.0745
     26 H4         -1.9619    1.7801   -2.4721 H         1 <0>         0.0650
     27 H5          0.0021   -0.0041    0.0020 H         1 <0>         0.4037
     28 H6          0.8223    1.4622    0.0021 H         1 <0>         0.4040
     29 H7         -1.8263    1.2050    2.6730 H         1 <0>         0.4195
     30 H8         -3.8160    2.4766    5.0468 H         1 <0>         0.0842
     31 H9         -2.5108    2.2008    6.2251 H         1 <0>         0.0855
     32 H10        -2.1197    2.4580    4.5078 H         1 <0>         0.0844
     33 H11        -6.8221   -0.4502    7.2420 H         1 <0>         0.1936
     34 H12        -1.7527   -1.1212    7.7970 H         1 <0>         0.0921
     35 H13        -2.4574   -2.7065    7.3988 H         1 <0>         0.0964
     36 H14        -1.7323   -1.7074    6.1165 H         1 <0>         0.0739
     37 H15        -4.8277   -1.7205   -2.4801 H         1 <0>         0.0782
     38 H16        -6.1745   -0.7333   -1.8640 H         1 <0>         0.0734
     39 H17        -5.0583   -0.0590   -3.0755 H         1 <0>         0.0806
@<TRIPOS>BOND
     1    1    2 1
     2    1   24 1
     3    1   25 1
     4    1   26 1
     5    2    6 1
     6    2    3 2
     7    3    4 1
     8    3   23 1
     9    4    5 1
    10    5    6 2
    11    5   10 1
    12    6    7 1
    13    7    8 2
    14    7    9 am
    15    9   27 1
    16    9   28 1
    17   10   11 am
    18   10   29 1
    19   11   12 2
    20   11   13 1
    21   13   14 1
    22   13   15 1
    23   13   16 1
    24   15   30 1
    25   15   31 1
    26   15   32 1
    27   16   20 1
    28   16   17 1
    29   17   18 2
    30   17   22 1
    31   18   19 1
    32   18   21 1
    33   19   20 2
    34   19   33 1
    35   22   34 1
    36   22   35 1
    37   22   36 1
    38   23   37 1
    39   23   38 1
    40   23   39 1
