@<TRIPOS>MOLECULE
ZINC55331911
   34    36     0     0     0
SMALL
USER_CHARGES

@<TRIPOS>ATOM
      1 C1         -0.0640    1.5017    0.0149 C.3       1 <0>        -0.1068
      2 C2         -0.0181   -0.0045    0.0040 C.2       1 <0>         0.1598
      3 C3         -0.1018   -0.7706   -1.0956 C.2       1 <0>        -0.2064
      4 C4         -0.0151   -2.1649   -0.6537 C.ar      1 <0>        -0.0832
      5 C5         -0.0412   -3.3952   -1.3136 C.ar      1 <0>        -0.0759
      6 C6          0.0651   -4.5525   -0.5953 C.ar      1 <0>        -0.1505
      7 C7          0.1987   -4.5154    0.7861 C.ar      1 <0>        -0.1119
      8 C8          0.2268   -3.3128    1.4572 C.ar      1 <0>        -0.1251
      9 C9          0.1205   -2.1218    0.7458 C.ar      1 <0>         0.1132
     10 N1          0.1211   -0.7950    1.1136 N.pl3     1 <0>        -0.4170
     11 C10         0.2475   -0.3025    2.4875 C.3       1 <0>         0.0880
     12 C11         0.9640    1.0706    2.5073 C.3       1 <0>        -0.1503
     13 C12         2.4581    0.6781    2.3952 C.3       1 <0>        -0.1215
     14 C13         2.5786   -0.6006    3.2497 C.3       1 <0>        -0.1192
     15 C14         1.1730   -1.2241    3.3084 C.3       1 <0>        -0.1423
     16 C15        -1.1085   -0.2024    3.1374 C.2       1 <0>         0.4979
     17 O1         -1.2196   -0.3529    4.3422 O.co2     1 <0>        -0.6798
     18 O2         -2.0943    0.0289    2.4584 O.co2     1 <0>        -0.6732
     19 Br1        -0.2950   -0.1649   -2.8765 Br        1 <0>        -0.0439
     20 H1          0.9516    1.8960    0.0487 H         1 <0>         0.0804
     21 H2         -0.5617    1.8566   -0.8876 H         1 <0>         0.0822
     22 H3         -0.6153    1.8421    0.8915 H         1 <0>         0.0938
     23 H4         -0.1456   -3.4318   -2.3879 H         1 <0>         0.1172
     24 H5          0.0448   -5.5038   -1.1062 H         1 <0>         0.1165
     25 H6          0.2810   -5.4388    1.3402 H         1 <0>         0.1201
     26 H7          0.3314   -3.2944    2.5320 H         1 <0>         0.1309
     27 H8          0.6591    1.6778    1.6550 H         1 <0>         0.1033
     28 H9          0.7712    1.5934    3.4441 H         1 <0>         0.0825
     29 H10         2.7211    0.4700    1.3581 H         1 <0>         0.0599
     30 H11         3.0914    1.4680    2.7992 H         1 <0>         0.0634
     31 H12         3.2766   -1.2964    2.7842 H         1 <0>         0.0566
     32 H13         2.9171   -0.3477    4.2545 H         1 <0>         0.0620
     33 H14         0.8294   -1.2738    4.3416 H         1 <0>         0.0971
     34 H15         1.1889   -2.2225    2.8713 H         1 <0>         0.0824
@<TRIPOS>BOND
     1    1    2 1
     2    1   20 1
     3    1   21 1
     4    1   22 1
     5    2   10 1
     6    2    3 2
     7    3    4 1
     8    3   19 1
     9    4    9 ar
    10    4    5 ar
    11    5    6 ar
    12    5   23 1
    13    6    7 ar
    14    6   24 1
    15    7    8 ar
    16    7   25 1
    17    8    9 ar
    18    8   26 1
    19    9   10 1
    20   10   11 1
    21   11   15 1
    22   11   12 1
    23   11   16 1
    24   12   13 1
    25   12   27 1
    26   12   28 1
    27   13   14 1
    28   13   29 1
    29   13   30 1
    30   14   15 1
    31   14   31 1
    32   14   32 1
    33   15   33 1
    34   15   34 1
    35   16   17 2
    36   16   18 1
