@<TRIPOS>MOLECULE
ZINC14547926
   45    49     0     0     0
SMALL
USER_CHARGES
1-[(3aR,4S,9bS)-6-nitro-3a,4,5,9b-tetrahydro-3H-cyclopenta[c]quinolin-4-yl]naphthalen-2-ol
@<TRIPOS>ATOM
      1 C1          5.2248   -3.7978   -5.1133 C.ar      1 <0>        -0.1114
      2 C2          5.5801   -3.9999   -3.7808 C.ar      1 <0>        -0.1155
      3 C3          4.8954   -3.3931   -2.7734 C.ar      1 <0>        -0.1127
      4 C4          3.8171   -2.5440   -3.0781 C.ar      1 <0>        -0.0202
      5 C5          3.4526   -2.3426   -4.4333 C.ar      1 <0>        -0.0485
      6 C6          4.1835   -2.9871   -5.4459 C.ar      1 <0>        -0.1055
      7 C7          2.3711   -1.4988   -4.7397 C.ar      1 <0>        -0.0912
      8 C8          1.6844   -0.8907   -3.7354 C.ar      1 <0>        -0.1238
      9 C9          2.0381   -1.0926   -2.3979 C.ar      1 <0>         0.0333
     10 C10         3.0837   -1.9061   -2.0647 C.ar      1 <0>        -0.0537
     11 C11         3.4518   -2.1130   -0.6181 C.3       1 <0>         0.1303
     12 H1          4.5370   -2.1259   -0.5174 H         1 <0>         0.1174
     13 C12         2.8784   -3.4457   -0.1313 C.3       1 <0>        -0.1226
     14 H2          3.1552   -3.6714    0.8986 H         1 <0>         0.1032
     15 C13         3.3185   -4.5486   -1.1346 C.3       1 <0>        -0.1436
     16 C14         2.3052   -4.4340   -2.2563 C.2       1 <0>        -0.1466
     17 C15         1.2200   -3.8341   -1.8360 C.2       1 <0>        -0.1581
     18 C16         1.3548   -3.4555   -0.3789 C.3       1 <0>        -0.0029
     19 H3          0.8795   -4.2032    0.2561 H         1 <0>         0.0924
     20 C17         0.7464   -2.1077   -0.1252 C.ar      1 <0>        -0.2113
     21 C18        -0.6378   -2.0012   -0.1596 C.ar      1 <0>        -0.0110
     22 C19        -1.2547   -0.7864    0.0564 C.ar      1 <0>        -0.2013
     23 C20        -0.4947    0.3408    0.3110 C.ar      1 <0>        -0.0104
     24 C21         0.8801    0.2456    0.3495 C.ar      1 <0>        -0.1925
     25 C22         1.5073   -0.9809    0.1328 C.ar      1 <0>         0.3944
     26 N1          2.9002   -1.0223    0.1865 N.pl3     1 <0>        -0.6369
     27 N2          1.6944    1.4509    0.6226 N.pl3     1 <0>         0.0444
     28 O1          1.1497    2.5237    0.8123 O.2       1 <0>        -0.2063
     29 O2          2.9092    1.3701    0.6577 O.3       1 <0>        -0.1607
     30 O3          1.3329   -0.4712   -1.4166 O.3       1 <0>        -0.3207
     31 H4          5.7846   -4.2917   -5.8938 H         1 <0>         0.1249
     32 H5          6.4110   -4.6480   -3.5442 H         1 <0>         0.1263
     33 H6          5.1815   -3.5596   -1.7454 H         1 <0>         0.1480
     34 H7          3.9203   -2.8396   -6.4829 H         1 <0>         0.1281
     35 H8          2.0867   -1.3337   -5.7684 H         1 <0>         0.1327
     36 H9          0.8539   -0.2430   -3.9744 H         1 <0>         0.1283
     37 H10         4.3245   -4.3511   -1.5048 H         1 <0>         0.1210
     38 H11         3.2662   -5.5331   -0.6697 H         1 <0>         0.0787
     39 H12         2.4575   -4.7965   -3.2623 H         1 <0>         0.1230
     40 H13         0.3500   -3.6376   -2.4451 H         1 <0>         0.1211
     41 H14        -1.2370   -2.8778   -0.3569 H         1 <0>         0.1256
     42 H15        -2.3318   -0.7145    0.0222 H         1 <0>         0.1326
     43 H16        -0.9767    1.2925    0.4791 H         1 <0>         0.1431
     44 H17         3.2238   -1.0772    1.1406 H         1 <0>         0.3832
     45 H18         1.5842    0.4520   -1.2760 H         1 <0>         0.3753
@<TRIPOS>BOND
     1    1    6 ar
     2    1    2 ar
     3    1   31 1
     4    2    3 ar
     5    2   32 1
     6    3    4 ar
     7    3   33 1
     8    4   10 ar
     9    4    5 ar
    10    5    6 ar
    11    5    7 ar
    12    6   34 1
    13    7    8 ar
    14    7   35 1
    15    8    9 ar
    16    8   36 1
    17    9   10 ar
    18    9   30 1
    19   10   11 1
    20   11   12 1
    21   11   26 1
    22   11   13 1
    23   13   14 1
    24   13   18 1
    25   13   15 1
    26   15   16 1
    27   15   37 1
    28   15   38 1
    29   16   17 2
    30   16   39 1
    31   17   18 1
    32   17   40 1
    33   18   19 1
    34   18   20 1
    35   20   25 ar
    36   20   21 ar
    37   21   22 ar
    38   21   41 1
    39   22   23 ar
    40   22   42 1
    41   23   24 ar
    42   23   43 1
    43   24   25 ar
    44   24   27 1
    45   25   26 1
    46   26   44 1
    47   27   28 2
    48   27   29 1
    49   30   45 1
