@<TRIPOS>MOLECULE
ZINC38548635
   51    54     0     0     0
SMALL
USER_CHARGES

@<TRIPOS>ATOM
      1 C1         -1.7845    2.1484    0.8886 C.3       1 <0>        -0.1149
      2 C2         -1.2288    0.7527    0.7694 C.ar      1 <0>        -0.0653
      3 C3         -0.8671    0.2567   -0.4700 C.ar      1 <0>        -0.1406
      4 C4         -0.3568   -1.0233   -0.5835 C.ar      1 <0>        -0.0952
      5 C5         -0.2067   -1.8109    0.5414 C.ar      1 <0>        -0.1445
      6 C6         -0.5689   -1.3158    1.7870 C.ar      1 <0>         0.1637
      7 C7         -1.0759   -0.0276    1.8984 C.ar      1 <0>        -0.1550
      8 N1         -0.4181   -2.1112    2.9285 N.am      1 <0>        -0.6815
      9 C8         -0.4125   -3.4544    2.8180 C.2       1 <0>         0.7113
     10 O1         -0.3719   -3.9739    1.7195 O.2       1 <0>        -0.5612
     11 N2         -0.4518   -4.2218    3.9253 N.am      1 <0>        -0.6267
     12 C9         -0.6864   -3.6192    5.2450 C.3       1 <0>         0.0940
     13 C10        -1.8911   -4.3126    5.8932 C.3       1 <0>         0.1125
     14 N3         -1.7007   -5.7670    5.8024 N.pl3     1 <0>        -0.5621
     15 C11        -1.4662   -6.3696    4.4827 C.3       1 <0>         0.1140
     16 C12        -0.2671   -5.6769    3.8338 C.3       1 <0>         0.1142
     17 C13        -1.7411   -6.5528    6.9362 C.2       1 <0>         0.4178
     18 N4         -1.5882   -7.8531    7.0433 N.2       1 <0>        -0.5781
     19 C14        -1.6529   -8.4957    8.2301 C.ar      1 <0>         0.1321
     20 C15        -1.5078   -9.8794    8.4823 C.ar      1 <0>        -0.0529
     21 C16        -1.6031  -10.3725    9.7576 C.ar      1 <0>        -0.0696
     22 C17        -1.8435   -9.5396   10.8407 C.ar      1 <0>        -0.1129
     23 C18        -1.9906   -8.1806   10.6303 C.ar      1 <0>        -0.0572
     24 C19        -1.8968   -7.6782    9.3567 C.ar      1 <0>        -0.1632
     25 S1         -2.0067   -6.0592    8.6332 S.3       1 <0>        -0.0308
     26 C20        -1.4435  -11.8532    9.9884 C.3       1 <0>        -0.1190
     27 C21        -1.2461  -10.8223    7.3363 C.3       1 <0>        -0.1111
     28 H1         -0.9673    2.8529    1.0429 H         1 <0>         0.0717
     29 H2         -2.3186    2.4061   -0.0260 H         1 <0>         0.0683
     30 H3         -2.4696    2.1956    1.7350 H         1 <0>         0.0657
     31 H4         -0.9838    0.8704   -1.3510 H         1 <0>         0.1219
     32 H5         -0.0756   -1.4079   -1.5527 H         1 <0>         0.1254
     33 H6          0.1916   -2.8107    0.4520 H         1 <0>         0.1601
     34 H7         -1.3540    0.3621    2.8665 H         1 <0>         0.1226
     35 H8         -0.3176   -1.6958    3.7993 H         1 <0>         0.4062
     36 H9          0.1951   -3.7559    5.8715 H         1 <0>         0.0841
     37 H10        -0.8949   -2.5556    5.1297 H         1 <0>         0.0951
     38 H11        -1.9632   -4.0177    6.9401 H         1 <0>         0.0973
     39 H12        -2.8028   -4.0294    5.3672 H         1 <0>         0.0875
     40 H13        -1.2577   -7.4332    4.5980 H         1 <0>         0.1117
     41 H14        -2.3477   -6.2329    3.8563 H         1 <0>         0.0801
     42 H15        -0.1987   -5.9719    2.7867 H         1 <0>         0.1139
     43 H16         0.6449   -5.9635    4.3574 H         1 <0>         0.0767
     44 H17        -1.9153   -9.9483   11.8378 H         1 <0>         0.1359
     45 H18        -2.1785   -7.5191   11.4630 H         1 <0>         0.1302
     46 H19        -0.3900  -12.0850   10.1449 H         1 <0>         0.0739
     47 H20        -2.0149  -12.1473   10.8687 H         1 <0>         0.0690
     48 H21        -1.8101  -12.3981    9.1184 H         1 <0>         0.0734
     49 H22        -0.1710  -10.9383    7.1995 H         1 <0>         0.0700
     50 H23        -1.6912  -11.7929    7.5554 H         1 <0>         0.0701
     51 H24        -1.6868  -10.4179    6.4251 H         1 <0>         0.0715
@<TRIPOS>BOND
     1    1    2 1
     2    1   28 1
     3    1   29 1
     4    1   30 1
     5    2    7 ar
     6    2    3 ar
     7    3    4 ar
     8    3   31 1
     9    4    5 ar
    10    4   32 1
    11    5    6 ar
    12    5   33 1
    13    6    7 ar
    14    6    8 1
    15    7   34 1
    16    8    9 am
    17    8   35 1
    18    9   10 2
    19    9   11 am
    20   11   16 1
    21   11   12 1
    22   12   13 1
    23   12   36 1
    24   12   37 1
    25   13   14 1
    26   13   38 1
    27   13   39 1
    28   14   15 1
    29   14   17 1
    30   15   16 1
    31   15   40 1
    32   15   41 1
    33   16   42 1
    34   16   43 1
    35   17   25 1
    36   17   18 2
    37   18   19 1
    38   19   24 ar
    39   19   20 ar
    40   20   21 ar
    41   20   27 1
    42   21   22 ar
    43   21   26 1
    44   22   23 ar
    45   22   44 1
    46   23   24 ar
    47   23   45 1
    48   24   25 1
    49   26   46 1
    50   26   47 1
    51   26   48 1
    52   27   49 1
    53   27   50 1
    54   27   51 1
