@<TRIPOS>MOLECULE
ZINC50204639
   32    34     0     0     0
SMALL
USER_CHARGES

@<TRIPOS>ATOM
      1 C1         -0.0167    1.3777    0.0096 C.ar      1 <0>        -0.1130
      2 C2          1.1710    2.0855    0.0021 C.ar      1 <0>        -0.1104
      3 C3          2.3777    1.4116   -0.0130 C.ar      1 <0>        -0.0315
      4 C4          2.3977    0.0294   -0.0210 C.ar      1 <0>        -0.0936
      5 C5          1.2098   -0.6793   -0.0135 C.ar      1 <0>        -0.0174
      6 C6          0.0021   -0.0041    0.0020 C.ar      1 <0>        -0.1223
      7 Cl1         1.2341   -2.4151   -0.0242 Cl        1 <0>        -0.0777
      8 C7          3.6718    2.1839   -0.0212 C.3       1 <0>        -0.1093
      9 C8          4.9640    1.3947   -0.2412 C.3       1 <0>        -0.1522
     10 C9          4.6373    1.9569    1.1438 C.3       1 <0>        -0.1002
     11 C10         4.2214    0.9782    2.2116 C.2       1 <0>         0.5184
     12 O1          3.4372    1.3853    3.2313 O.3       1 <0>        -0.7133
     13 N1          4.6154   -0.2491    2.1507 N.2       1 <0>        -1.0531
     14 S1          4.1584   -1.3245    3.3242 S.o2      1 <0>         2.6692
     15 O2          4.7775   -0.8975    4.5298 O.2       1 <0>        -0.9968
     16 O3          2.7512   -1.4822    3.2048 O.2       1 <0>        -0.9809
     17 C11         4.8761   -2.8803    2.9130 C.2       1 <0>        -0.6783
     18 C12         6.0778   -3.3887    3.2785 C.2       1 <0>        -0.0372
     19 C13         6.4378   -4.6469    2.8321 C.2       1 <0>        -0.1612
     20 C14         5.5765   -5.3346    2.0412 C.2       1 <0>        -0.1184
     21 S2          4.2053   -4.1985    1.9134 S.3       1 <0>         0.2104
     22 Cl2         5.7577   -6.9127    1.3409 Cl        1 <0>         0.0124
     23 H1         -0.9592    1.9048    0.0259 H         1 <0>         0.1253
     24 H2          1.1559    3.1654    0.0076 H         1 <0>         0.1231
     25 H3          3.3407   -0.4970   -0.0336 H         1 <0>         0.1440
     26 H4         -0.9257   -0.5568    0.0079 H         1 <0>         0.1254
     27 H5          3.6173    3.1882   -0.4414 H         1 <0>         0.1154
     28 H6          4.8781    0.3170   -0.3800 H         1 <0>         0.1109
     29 H7          5.7599    1.8798   -0.8064 H         1 <0>         0.0951
     30 H8          5.2183    2.8118    1.4898 H         1 <0>         0.1199
     31 H9          6.7448   -2.8194    3.9090 H         1 <0>         0.1522
     32 H10         7.3899   -5.0753    3.1084 H         1 <0>         0.1452
@<TRIPOS>BOND
     1    1    6 ar
     2    1    2 ar
     3    1   23 1
     4    2    3 ar
     5    2   24 1
     6    3    4 ar
     7    3    8 1
     8    4    5 ar
     9    4   25 1
    10    5    6 ar
    11    5    7 1
    12    6   26 1
    13    8   10 1
    14    8    9 1
    15    8   27 1
    16    9   10 1
    17    9   28 1
    18    9   29 1
    19   10   11 1
    20   10   30 1
    21   11   12 1
    22   11   13 2
    23   13   14 1
    24   14   15 2
    25   14   16 2
    26   14   17 1
    27   17   21 1
    28   17   18 2
    29   18   19 1
    30   18   31 1
    31   19   20 2
    32   19   32 1
    33   20   21 1
    34   20   22 1
