@<TRIPOS>MOLECULE
ZINC08429627
   34    36     0     0     0
SMALL
USER_CHARGES
3-(5-fluorobenzothiophen-2-yl)carbonylamino-4-methyl-benzoic acid
@<TRIPOS>ATOM
      1 C1         -0.1677    0.2917   -1.2339 C.3       1 <0>        -0.1087
      2 C2         -0.0992    1.6437   -0.5717 C.ar      1 <0>        -0.1208
      3 C3          1.0888    2.3509   -0.5705 C.ar      1 <0>        -0.1195
      4 C4          1.1593    3.5896    0.0328 C.ar      1 <0>        -0.0857
      5 C5          0.0280    4.1332    0.6456 C.ar      1 <0>        -0.0981
      6 C6         -1.1706    3.4194    0.6448 C.ar      1 <0>        -0.0887
      7 C7         -1.2321    2.1779    0.0307 C.ar      1 <0>         0.1180
      8 N1         -2.4328    1.4606    0.0220 N.am      1 <0>        -0.6545
      9 C8         -3.6076    2.1119    0.1328 C.2       1 <0>         0.5885
     10 O1         -3.6305    3.3282    0.1393 O.2       1 <0>        -0.4799
     11 C9         -4.8608    1.3526    0.2458 C.2       1 <0>        -0.1712
     12 C10        -6.1297    1.8254    0.3703 C.2       1 <0>        -0.0662
     13 C11        -7.2077    0.9266    0.4606 C.ar      1 <0>        -0.0686
     14 C12        -8.5896    1.2231    0.5885 C.ar      1 <0>        -0.1025
     15 C13        -9.5099    0.2257    0.6696 C.ar      1 <0>         0.0976
     16 C14        -9.1371   -1.1145    0.6310 C.ar      1 <0>        -0.1205
     17 C15        -7.8032   -1.4454    0.5075 C.ar      1 <0>        -0.0488
     18 C16        -6.8590   -0.4442    0.4241 C.ar      1 <0>        -0.1191
     19 S1         -5.0915   -0.4167    0.2614 S.3       1 <0>         0.0793
     20 F1        -10.8175    0.5433    0.7902 F         1 <0>        -0.1373
     21 C17         0.1006    5.4593    1.2929 C.2       1 <0>         0.4895
     22 O2         -0.8845    5.9300    1.8253 O.co2     1 <0>        -0.6253
     23 H1          0.0813   -0.4817   -0.5073 H         1 <0>         0.0664
     24 H2         -1.1757    0.1233   -1.6128 H         1 <0>         0.0562
     25 H3          0.5419    0.2557   -2.0605 H         1 <0>         0.0693
     26 H4          1.9646    1.9322   -1.0439 H         1 <0>         0.1218
     27 H5          2.0890    4.1391    0.0309 H         1 <0>         0.1329
     28 H6         -2.0487    3.8343    1.1174 H         1 <0>         0.1508
     29 H7         -2.4200    0.4945   -0.0638 H         1 <0>         0.4054
     30 H8         -6.3098    2.8899    0.3963 H         1 <0>         0.1552
     31 H9         -8.9138    2.2527    0.6220 H         1 <0>         0.1442
     32 H10        -9.8862   -1.8898    0.6968 H         1 <0>         0.1496
     33 H11        -7.5009   -2.4817    0.4760 H         1 <0>         0.1455
     34 O3          1.2593    6.1463    1.2928 O.co2     1 <0>        -0.7549
@<TRIPOS>BOND
     1    1    2 1
     2    1   23 1
     3    1   24 1
     4    1   25 1
     5    2    7 ar
     6    2    3 ar
     7    3    4 ar
     8    3   26 1
     9    4    5 ar
    10    4   27 1
    11    5    6 ar
    12    5   21 1
    13    6    7 ar
    14    6   28 1
    15    7    8 1
    16    8    9 am
    17    8   29 1
    18    9   10 2
    19    9   11 1
    20   11   19 1
    21   11   12 2
    22   12   13 1
    23   12   30 1
    24   13   18 ar
    25   13   14 ar
    26   14   15 ar
    27   14   31 1
    28   15   16 ar
    29   15   20 1
    30   16   17 ar
    31   16   32 1
    32   17   18 ar
    33   17   33 1
    34   18   19 1
    35   21   22 2
    36   21   34 1
