@<TRIPOS>MOLECULE
ZINC05770123
   34    36     0     0     0
SMALL
USER_CHARGES
2-[2-(3-bromo-2-hydroxy-5-nitro-phenyl)vinyl]quinolin-8-ol
@<TRIPOS>ATOM
      1 C1          0.0021   -0.0041    0.0020 C.ar      1 <0>        -0.1132
      2 C2          1.1799   -0.6889   -0.0129 C.ar      1 <0>        -0.1032
      3 C3          2.3960    0.0104   -0.0207 C.ar      1 <0>        -0.1071
      4 C4          3.6301   -0.6730   -0.0357 C.ar      1 <0>        -0.0647
      5 C5          4.7761    0.0618   -0.0427 C.ar      1 <0>        -0.1587
      6 C6          4.7061    1.4680   -0.0340 C.ar      1 <0>         0.2169
      7 N1          3.5442    2.0996   -0.0200 N.ar      1 <0>        -0.4705
      8 C7          2.3911    1.4274   -0.0131 C.ar      1 <0>         0.1161
      9 C8          1.1551    2.1088    0.0024 C.ar      1 <0>         0.1320
     10 C9         -0.0168    1.3877    0.0097 C.ar      1 <0>        -0.1376
     11 O1          1.1227    3.4669    0.0095 O.3       1 <0>        -0.4795
     12 C10         5.9517    2.2513   -0.0412 C.2       1 <0>        -0.2107
     13 C11         5.9010    3.5950   -0.0335 C.2       1 <0>         0.0352
     14 C12         7.1472    4.3786   -0.0407 C.ar      1 <0>        -0.2079
     15 C13         8.3854    3.7300   -0.0498 C.ar      1 <0>         0.0193
     16 C14         9.5486    4.4697   -0.0623 C.ar      1 <0>        -0.1730
     17 C15         9.4967    5.8536   -0.0549 C.ar      1 <0>         0.0255
     18 C16         8.2787    6.5078   -0.0397 C.ar      1 <0>        -0.2126
     19 C17         7.0990    5.7800   -0.0328 C.ar      1 <0>         0.3356
     20 Br1         8.2222    8.3979   -0.0290 Br        1 <0>        -0.0571
     21 N2         10.8591    3.7817   -0.0781 N.pl3     1 <0>         0.0664
     22 O2         11.8886    4.4325   -0.0844 O.2       1 <0>        -0.2142
     23 O3         10.9080    2.5647   -0.0846 O.3       1 <0>        -0.2138
     24 H1         -0.9304   -0.5490    0.0076 H         1 <0>         0.1273
     25 H2          1.1773   -1.7689   -0.0183 H         1 <0>         0.1277
     26 H3          3.6649   -1.7524   -0.0417 H         1 <0>         0.1381
     27 H4          5.7363   -0.4325   -0.0545 H         1 <0>         0.1391
     28 H5         -0.9631    1.9081    0.0170 H         1 <0>         0.1326
     29 H6          1.1216    3.8556    0.8949 H         1 <0>         0.3922
     30 H7          6.9067    1.7470   -0.0527 H         1 <0>         0.1269
     31 H8          4.9461    4.0993   -0.0221 H         1 <0>         0.1405
     32 H9          8.4307    2.6510   -0.0511 H         1 <0>         0.1372
     33 H10        10.4130    6.4252   -0.0606 H         1 <0>         0.1368
     34 O4          5.9020    6.4212   -0.0179 O.3       1 <0>        -0.6215
@<TRIPOS>BOND
     1    1   10 ar
     2    1    2 ar
     3    1   24 1
     4    2    3 ar
     5    2   25 1
     6    3    8 ar
     7    3    4 ar
     8    4    5 ar
     9    4   26 1
    10    5    6 ar
    11    5   27 1
    12    6    7 ar
    13    6   12 1
    14    7    8 ar
    15    8    9 ar
    16    9   10 ar
    17    9   11 1
    18   10   28 1
    19   11   29 1
    20   12   13 2
    21   12   30 1
    22   13   14 1
    23   13   31 1
    24   14   19 ar
    25   14   15 ar
    26   15   16 ar
    27   15   32 1
    28   16   17 ar
    29   16   21 1
    30   17   18 ar
    31   17   33 1
    32   18   19 ar
    33   18   20 1
    34   19   34 1
    35   21   22 2
    36   21   23 1
