@<TRIPOS>MOLECULE
ZINC03851633
   34    37     0     0     0
SMALL
USER_CHARGES
4-[5-(6-cyanobenzothiazol-2-yl)-2-thienyl]benzoic acid
@<TRIPOS>ATOM
      1 C1         -3.6949    1.8818    0.0298 C.ar      1 <0>        -0.1069
      2 C2         -2.5031    1.2151    0.0205 C.ar      1 <0>        -0.0877
      3 C3         -1.3014    1.9308    0.0187 C.ar      1 <0>        -0.0848
      4 C4         -1.3204    3.3293    0.0322 C.ar      1 <0>        -0.0805
      5 C5         -2.5123    3.9959    0.0361 C.ar      1 <0>        -0.0953
      6 C6         -3.7138    3.2802    0.0379 C.ar      1 <0>        -0.0485
      7 C7         -5.0011    4.0003    0.0478 C.2       1 <0>        -0.0326
      8 C8         -5.2342    5.3653    0.0567 C.2       1 <0>        -0.1884
      9 C9         -6.5275    5.8119    0.0647 C.2       1 <0>        -0.0471
     10 C10        -7.5534    4.8797    0.0636 C.2       1 <0>        -0.1694
     11 S1         -6.6579    3.3355    0.0436 S.3       1 <0>         0.1305
     12 C11        -9.0050    5.1048    0.0702 C.2       1 <0>         0.2796
     13 N1         -9.6665    6.2468    0.0783 N.2       1 <0>        -0.5146
     14 C12       -11.0041    6.3067    0.0838 C.ar      1 <0>         0.1275
     15 C13       -11.8244    7.4642    0.0922 C.ar      1 <0>        -0.0661
     16 C14       -13.1758    7.3633    0.0969 C.ar      1 <0>        -0.0626
     17 C15       -13.8179    6.1163    0.0932 C.ar      1 <0>        -0.0188
     18 C16       -13.0411    4.9532    0.0845 C.ar      1 <0>        -0.0019
     19 C17       -11.6765    5.0584    0.0802 C.ar      1 <0>        -0.1658
     20 S2        -10.3274    3.9020    0.0614 S.3       1 <0>         0.0252
     21 C18       -15.2476    6.0351    0.0978 C.1       1 <0>         0.2582
     22 N2        -16.3817    5.9707    0.1014 N.1       1 <0>        -0.4087
     23 C19        -0.0144    1.2109    0.0087 C.2       1 <0>         0.4843
     24 O1          0.0021   -0.0041    0.0020 O.co2     1 <0>        -0.6255
     25 H1         -4.6228    1.3292    0.0312 H         1 <0>         0.1195
     26 H2         -2.4885    0.1352    0.0143 H         1 <0>         0.1351
     27 H3         -0.3925    3.8820    0.0356 H         1 <0>         0.1395
     28 H4         -2.5270    5.0758    0.0427 H         1 <0>         0.1249
     29 H5         -4.4107    6.0641    0.0570 H         1 <0>         0.1487
     30 H6         -6.7447    6.8698    0.0714 H         1 <0>         0.1470
     31 H7        -11.3645    8.4414    0.0952 H         1 <0>         0.1450
     32 H8        -13.7721    8.2638    0.1040 H         1 <0>         0.1437
     33 H9        -13.5133    3.9820    0.0815 H         1 <0>         0.1445
     34 O2          1.1434    1.9005    0.0013 O.co2     1 <0>        -0.7480
@<TRIPOS>BOND
     1    1    6 ar
     2    1    2 ar
     3    1   25 1
     4    2    3 ar
     5    2   26 1
     6    3    4 ar
     7    3   23 1
     8    4    5 ar
     9    4   27 1
    10    5    6 ar
    11    5   28 1
    12    6    7 1
    13    7   11 1
    14    7    8 2
    15    8    9 1
    16    8   29 1
    17    9   10 2
    18    9   30 1
    19   10   11 1
    20   10   12 1
    21   12   20 1
    22   12   13 2
    23   13   14 1
    24   14   19 ar
    25   14   15 ar
    26   15   16 ar
    27   15   31 1
    28   16   17 ar
    29   16   32 1
    30   17   18 ar
    31   17   21 1
    32   18   19 ar
    33   18   33 1
    34   19   20 1
    35   21   22 3
    36   23   24 2
    37   23   34 1
