@<TRIPOS>MOLECULE
ZINC04692374
   34    34     0     0     0
SMALL
USER_CHARGES
3-methyl-4-tert-butyl-cyclohexan-1-ol
@<TRIPOS>ATOM
      1 C1          0.0692    1.1288   -0.0185 C.3       1 <0>        -0.1583
      2 C2         -0.7170    1.5584    1.2217 C.3       1 <0>        -0.0847
      3 H1         -1.7514    1.2274    1.1290 H         1 <0>         0.0857
      4 C3         -0.0896    0.9283    2.4668 C.3       1 <0>        -0.1087
      5 C4         -0.8757    1.3579    3.7071 C.3       1 <0>         0.1042
      6 H2         -0.4288    0.9090    4.5941 H         1 <0>         0.0513
      7 C5         -0.8374    2.8823    3.8325 C.3       1 <0>        -0.1539
      8 C6         -1.4648    3.5124    2.5874 C.3       1 <0>        -0.1132
      9 C7         -0.6786    3.0828    1.3472 C.3       1 <0>        -0.0696
     10 H3          0.3557    3.4138    1.4399 H         1 <0>         0.0660
     11 C8         -1.3060    3.7129    0.1021 C.3       1 <0>        -0.0608
     12 C9         -2.5333    2.9011   -0.3170 C.3       1 <0>        -0.1481
     13 C10        -1.7277    5.1500    0.4151 C.3       1 <0>        -0.1453
     14 C11        -0.2845    3.7178   -1.0369 C.3       1 <0>        -0.1702
     15 O1         -2.2318    0.9240    3.5855 O.3       1 <0>        -0.5628
     16 H4          0.2954    0.0645    0.0453 H         1 <0>         0.0509
     17 H5          0.9988    1.6952   -0.0737 H         1 <0>         0.0578
     18 H6         -0.5267    1.3207   -0.9109 H         1 <0>         0.0673
     19 H7         -0.1169   -0.1577    2.3775 H         1 <0>         0.0675
     20 H8          0.9448    1.2593    2.5596 H         1 <0>         0.0724
     21 H9         -1.3974    3.1884    4.7161 H         1 <0>         0.0624
     22 H10         0.1970    3.2133    3.9253 H         1 <0>         0.0693
     23 H11        -2.4992    3.1814    2.4947 H         1 <0>         0.0689
     24 H12        -1.4375    4.5984    2.6768 H         1 <0>         0.0646
     25 H13        -3.2845    2.9448    0.4716 H         1 <0>         0.0544
     26 H14        -2.9469    3.3161   -1.2362 H         1 <0>         0.0495
     27 H15        -2.2429    1.8641   -0.4851 H         1 <0>         0.0642
     28 H16        -0.8534    5.7283    0.7137 H         1 <0>         0.0522
     29 H17        -2.1747    5.5989   -0.4719 H         1 <0>         0.0513
     30 H18        -2.4555    5.1465    1.2266 H         1 <0>         0.0585
     31 H19         0.1109    2.7114   -1.1747 H         1 <0>         0.0816
     32 H20        -0.7675    4.0475   -1.9568 H         1 <0>         0.0504
     33 H21         0.5309    4.3980   -0.7907 H         1 <0>         0.0502
     34 H22        -2.7901    1.1625    4.3381 H         1 <0>         0.3748
@<TRIPOS>BOND
     1    1    2 1
     2    1   16 1
     3    1   17 1
     4    1   18 1
     5    2    3 1
     6    2    9 1
     7    2    4 1
     8    4    5 1
     9    4   19 1
    10    4   20 1
    11    5    6 1
    12    5    7 1
    13    5   15 1
    14    7    8 1
    15    7   21 1
    16    7   22 1
    17    8    9 1
    18    8   23 1
    19    8   24 1
    20    9   10 1
    21    9   11 1
    22   11   12 1
    23   11   13 1
    24   11   14 1
    25   12   25 1
    26   12   26 1
    27   12   27 1
    28   13   28 1
    29   13   29 1
    30   13   30 1
    31   14   31 1
    32   14   32 1
    33   14   33 1
    34   15   34 1
