@<TRIPOS>MOLECULE
ZINC35023865
   42    45     0     0     0
SMALL
USER_CHARGES

@<TRIPOS>ATOM
      1 C1         -0.0167    1.3781    0.0096 C.ar      1 <0>        -0.1194
      2 C2          1.1709    2.0855    0.0021 C.ar      1 <0>        -0.1210
      3 C3          2.3773    1.4107   -0.0130 C.ar      1 <0>        -0.0987
      4 C4          2.3960    0.0285   -0.0201 C.ar      1 <0>        -0.0791
      5 C5          1.2084   -0.6789   -0.0117 C.ar      1 <0>        -0.1144
      6 C6          0.0021   -0.0041    0.0020 C.ar      1 <0>        -0.1204
      7 C7          3.7112   -0.7071   -0.0376 C.3       1 <0>         0.0947
      8 N1          4.1530   -0.9531    1.3416 N.3       1 <0>        -0.5346
      9 C8          3.2450   -1.8829    2.0276 C.3       1 <0>         0.0495
     10 C9          3.6935   -2.0504    3.4813 C.3       1 <0>         0.0626
     11 N2          5.0751   -2.5502    3.5105 N.3       1 <0>        -0.6741
     12 C10         5.9831   -1.6204    2.8245 C.3       1 <0>         0.1767
     13 C11         5.5347   -1.4529    1.3708 C.3       1 <0>         0.0691
     14 C12         7.3856   -2.1708    2.8578 C.2       1 <0>         0.2818
     15 N3          8.4311   -1.6008    3.5155 N.pl3     1 <0>        -0.5981
     16 H1          8.4055   -0.7831    4.0367 H         1 <0>         0.4216
     17 C13         9.5353   -2.4021    3.3041 C.ar      1 <0>         0.0497
     18 C14        10.8623   -2.3458    3.7081 C.ar      1 <0>        -0.1139
     19 C15        11.7388   -3.3338    3.3131 C.ar      1 <0>        -0.0979
     20 C16        11.3034   -4.3822    2.5149 C.ar      1 <0>        -0.1283
     21 C17        10.0014   -4.4540    2.1078 C.ar      1 <0>        -0.0607
     22 C18         9.0948   -3.4640    2.4964 C.ar      1 <0>         0.0429
     23 N4          7.7718   -3.2634    2.2662 N.2       1 <0>        -0.4593
     24 H2         -0.9591    1.9053    0.0259 H         1 <0>         0.1210
     25 H3          1.1563    3.1654    0.0076 H         1 <0>         0.1216
     26 H4          3.3051    1.9634   -0.0196 H         1 <0>         0.1214
     27 H5          1.2231   -1.7588   -0.0176 H         1 <0>         0.1192
     28 H6         -0.9258   -0.5567    0.0082 H         1 <0>         0.1217
     29 H7          3.5884   -1.6586   -0.5549 H         1 <0>         0.0480
     30 H8          4.4573   -0.1052   -0.5563 H         1 <0>         0.0848
     31 H9          2.2306   -1.4848    2.0036 H         1 <0>         0.0868
     32 H10         3.2683   -2.8504    1.5261 H         1 <0>         0.0471
     33 H11         3.6442   -1.0878    3.9903 H         1 <0>         0.0425
     34 H12         3.0387   -2.7620    3.9842 H         1 <0>         0.0873
     35 H13         5.3786   -2.7192    4.4579 H         1 <0>         0.3472
     36 H14         5.9598   -0.6529    3.3261 H         1 <0>         0.0647
     37 H15         5.5840   -2.4155    0.8618 H         1 <0>         0.0625
     38 H16         6.1895   -0.7413    0.8679 H         1 <0>         0.0805
     39 H17        11.2064   -1.5317    4.3287 H         1 <0>         0.1231
     40 H18        12.7714   -3.2914    3.6265 H         1 <0>         0.1313
     41 H19        12.0010   -5.1491    2.2122 H         1 <0>         0.1307
     42 H20         9.6733   -5.2741    1.4865 H         1 <0>         0.1300
@<TRIPOS>BOND
     1    1    6 ar
     2    1    2 ar
     3    1   24 1
     4    2    3 ar
     5    2   25 1
     6    3    4 ar
     7    3   26 1
     8    4    5 ar
     9    4    7 1
    10    5    6 ar
    11    5   27 1
    12    6   28 1
    13    7    8 1
    14    7   29 1
    15    7   30 1
    16    8   13 1
    17    8    9 1
    18    9   10 1
    19    9   31 1
    20    9   32 1
    21   10   11 1
    22   10   33 1
    23   10   34 1
    24   11   12 1
    25   11   35 1
    26   12   13 1
    27   12   14 1
    28   12   36 1
    29   13   37 1
    30   13   38 1
    31   14   23 2
    32   14   15 1
    33   15   16 1
    34   15   17 1
    35   17   22 ar
    36   17   18 ar
    37   18   19 ar
    38   18   39 1
    39   19   20 ar
    40   19   40 1
    41   20   21 ar
    42   20   41 1
    43   21   22 ar
    44   21   42 1
    45   22   23 1
