@<TRIPOS>MOLECULE
ZINC22351505
   44    46     0     0     0
SMALL
USER_CHARGES

@<TRIPOS>ATOM
      1 C1         -0.0358    1.5096   -0.0185 C.3       1 <0>        -0.1660
      2 C2         -0.0190   -0.0203   -0.0114 C.3       1 <0>         0.1393
      3 H1          0.5518   -0.3813   -0.8670 H         1 <0>         0.0961
      4 C3          0.6308   -0.5172    1.2815 C.3       1 <0>        -0.1246
      5 C4          0.7628   -2.0407    1.2331 C.3       1 <0>        -0.0984
      6 C5          1.7486   -2.4325    0.1306 C.3       1 <0>        -0.1518
      7 C6          1.2760   -2.5512    2.5811 C.3       1 <0>        -0.1486
      8 N1         -1.3922   -0.5241   -0.0928 N.am      1 <0>        -0.7176
      9 C7         -1.9884   -0.6649   -1.2933 C.2       1 <0>         0.6048
     10 O1         -1.3858   -0.3735   -2.3100 O.2       1 <0>        -0.5226
     11 C8         -3.3609   -1.1685   -1.3746 C.2       1 <0>        -0.2266
     12 C9         -4.1433   -1.3895   -2.4990 C.2       1 <0>        -0.0684
     13 C10        -5.4115   -1.8696   -2.3318 C.2       1 <0>        -0.1575
     14 C11        -5.8667   -2.1170   -1.0463 C.2       1 <0>        -0.0822
     15 S1         -4.4545   -1.6630   -0.0530 S.3       1 <0>         0.1115
     16 C12        -7.1814   -2.6303   -0.6102 C.ar      1 <0>        -0.0059
     17 C13        -8.1604   -2.9408   -1.5562 C.ar      1 <0>        -0.0788
     18 C14        -9.3869   -3.4199   -1.1472 C.ar      1 <0>        -0.0954
     19 C15        -9.6532   -3.5952    0.2032 C.ar      1 <0>         0.0451
     20 C16        -8.6797   -3.2869    1.1531 C.ar      1 <0>         0.0386
     21 C17        -7.4462   -2.8117    0.7487 C.ar      1 <0>        -0.0862
     22 O2         -9.1854   -3.5447    2.3948 O.3       1 <0>        -0.3055
     23 C18       -10.6123   -3.6241    2.2196 C.3       1 <0>         0.2124
     24 O3        -10.7665   -4.0458    0.8517 O.3       1 <0>        -0.3045
     25 H2          0.9859    1.8845    0.0420 H         1 <0>         0.0687
     26 H3         -0.4987    1.8636   -0.9396 H         1 <0>         0.0623
     27 H4         -0.6065    1.8707    0.8370 H         1 <0>         0.0577
     28 H5          1.6193   -0.0700    1.3865 H         1 <0>         0.0829
     29 H6          0.0112   -0.2330    2.1321 H         1 <0>         0.0697
     30 H7         -0.2110   -2.4834    1.0238 H         1 <0>         0.0694
     31 H8          2.7225   -1.9899    0.3399 H         1 <0>         0.0561
     32 H9          1.8427   -3.5179    0.0961 H         1 <0>         0.0547
     33 H10         1.3831   -2.0688   -0.8297 H         1 <0>         0.0571
     34 H11         2.2474   -2.1046    2.7928 H         1 <0>         0.0557
     35 H12         0.5710   -2.2767    3.3658 H         1 <0>         0.0542
     36 H13         1.3750   -3.6361    2.5449 H         1 <0>         0.0555
     37 H14        -1.8724   -0.7563    0.7174 H         1 <0>         0.3983
     38 H15        -3.7576   -1.1857   -3.4870 H         1 <0>         0.1494
     39 H16        -6.0474   -2.0526   -3.1853 H         1 <0>         0.1471
     40 H17        -7.9570   -2.8054   -2.6082 H         1 <0>         0.1462
     41 H18       -10.1430   -3.6592   -1.8803 H         1 <0>         0.1449
     42 H19        -6.6898   -2.5772    1.4830 H         1 <0>         0.1378
     43 H20       -11.0410   -4.3615    2.8983 H         1 <0>         0.1361
     44 H21       -11.0719   -2.6478    2.3735 H         1 <0>         0.0888
@<TRIPOS>BOND
     1    1    2 1
     2    1   25 1
     3    1   26 1
     4    1   27 1
     5    2    3 1
     6    2    4 1
     7    2    8 1
     8    4    5 1
     9    4   28 1
    10    4   29 1
    11    5    6 1
    12    5    7 1
    13    5   30 1
    14    6   31 1
    15    6   32 1
    16    6   33 1
    17    7   34 1
    18    7   35 1
    19    7   36 1
    20    8    9 am
    21    8   37 1
    22    9   10 2
    23    9   11 1
    24   11   15 1
    25   11   12 2
    26   12   13 1
    27   12   38 1
    28   13   14 2
    29   13   39 1
    30   14   15 1
    31   14   16 1
    32   16   21 ar
    33   16   17 ar
    34   17   18 ar
    35   17   40 1
    36   18   19 ar
    37   18   41 1
    38   19   24 1
    39   19   20 ar
    40   20   21 ar
    41   20   22 1
    42   21   42 1
    43   22   23 1
    44   23   24 1
    45   23   43 1
    46   23   44 1
