@<TRIPOS>MOLECULE
ZINC12500549
   39    40     0     0     0
SMALL
USER_CHARGES
3-iodo-4-methyl-N-(4-methylpiperidine-1-carbothioyl)benzamide
@<TRIPOS>ATOM
      1 C1          2.4899    1.0436   -0.0429 C.3       1 <0>        -0.1367
      2 C2          1.1775    1.7841   -0.0218 C.ar      1 <0>        -0.0191
      3 C3         -0.0120    1.0772   -0.0091 C.ar      1 <0>        -0.1200
      4 C4         -1.2168    1.7486    0.0045 C.ar      1 <0>        -0.0689
      5 C5         -1.2346    3.1448    0.0162 C.ar      1 <0>        -0.1395
      6 C6         -0.0314    3.8521    0.0033 C.ar      1 <0>        -0.0149
      7 C7          1.1673    3.1680   -0.0156 C.ar      1 <0>        -0.1137
      8 I1          2.9750    4.2268   -0.0342 I         1 <0>        -0.0203
      9 C8         -2.5218    3.8704    0.0359 C.2       1 <0>         0.5361
     10 O1         -2.5343    5.0855    0.0410 O.2       1 <0>        -0.3975
     11 N1         -3.6819    3.1845    0.0482 N.am      1 <0>        -0.6461
     12 C9         -4.8559    3.8462    0.0662 C.2       1 <0>         0.5242
     13 S1         -4.8748    5.5522    0.2089 S.2       1 <0>        -0.5223
     14 N2         -6.0150    3.1650   -0.0281 N.pl3     1 <0>        -0.5562
     15 C10        -6.0208    1.6959   -0.0427 C.3       1 <0>         0.0904
     16 C11        -6.9724    1.2001    1.0567 C.3       1 <0>        -0.1290
     17 C12        -8.3500    1.8357    0.8556 C.3       1 <0>        -0.0957
     18 C13        -8.2332    3.3573    0.9703 C.3       1 <0>        -0.1284
     19 C14        -7.2963    3.8775   -0.1244 C.3       1 <0>         0.0957
     20 C15        -9.3122    1.3162    1.9258 C.3       1 <0>        -0.1483
     21 H1          2.7925    0.8700   -1.0756 H         1 <0>         0.0865
     22 H2          3.2505    1.6378    0.4635 H         1 <0>         0.0810
     23 H3          2.3760    0.0876    0.4680 H         1 <0>         0.0799
     24 H4          0.0029   -0.0027   -0.0144 H         1 <0>         0.1412
     25 H5         -2.1444    1.1955    0.0098 H         1 <0>         0.1268
     26 H6         -0.0382    4.9321    0.0078 H         1 <0>         0.1481
     27 H7         -3.6719    2.2145    0.0442 H         1 <0>         0.4049
     28 H8         -6.3645    1.3414   -1.0145 H         1 <0>         0.0901
     29 H9         -5.0140    1.3246    0.1488 H         1 <0>         0.0757
     30 H10        -6.5810    1.4816    2.0342 H         1 <0>         0.0724
     31 H11        -7.0604    0.1152    0.9987 H         1 <0>         0.0847
     32 H12        -8.7300    1.5741   -0.1319 H         1 <0>         0.0757
     33 H13        -7.8300    3.6186    1.9486 H         1 <0>         0.0723
     34 H14        -9.2185    3.8079    0.8502 H         1 <0>         0.0863
     35 H15        -7.1314    4.9462    0.0131 H         1 <0>         0.1296
     36 H16        -7.7419    3.6974   -1.1028 H         1 <0>         0.0821
     37 H17       -10.2937    1.7679    1.7820 H         1 <0>         0.0597
     38 H18        -9.3954    0.2325    1.8443 H         1 <0>         0.0570
     39 H19        -8.9328    1.5782    2.9135 H         1 <0>         0.0561
@<TRIPOS>BOND
     1    1    2 1
     2    1   21 1
     3    1   22 1
     4    1   23 1
     5    2    7 ar
     6    2    3 ar
     7    3    4 ar
     8    3   24 1
     9    4    5 ar
    10    4   25 1
    11    5    6 ar
    12    5    9 1
    13    6    7 ar
    14    6   26 1
    15    7    8 1
    16    9   10 2
    17    9   11 am
    18   11   12 1
    19   11   27 1
    20   12   13 2
    21   12   14 1
    22   14   19 1
    23   14   15 1
    24   15   16 1
    25   15   28 1
    26   15   29 1
    27   16   17 1
    28   16   30 1
    29   16   31 1
    30   17   18 1
    31   17   20 1
    32   17   32 1
    33   18   19 1
    34   18   33 1
    35   18   34 1
    36   19   35 1
    37   19   36 1
    38   20   37 1
    39   20   38 1
    40   20   39 1
