@<TRIPOS>MOLECULE
ZINC32772646
   42    45     0     0     0
SMALL
USER_CHARGES
(E)-3-(9-chloro-3,4-dihydro-2H-1,5-benzodioxepin-7-yl)-N-(5,6-dihydro-4H-cyclopenta[d]thiazol-2-yl)prop-2-enamide
@<TRIPOS>ATOM
      1 C1         -0.3900    5.1824   -1.2186 C.ar      1 <0>        -0.0851
      2 C2          0.3037    5.3642   -2.4219 C.ar      1 <0>        -0.0568
      3 C3          0.6595    4.2539   -3.1955 C.ar      1 <0>        -0.0868
      4 C4          0.3272    2.9832   -2.7734 C.ar      1 <0>        -0.0383
      5 C5         -0.3607    2.8074   -1.5799 C.ar      1 <0>         0.0888
      6 C6         -0.7172    3.9068   -0.8064 C.ar      1 <0>         0.0785
      7 O1         -1.3940    3.7164    0.3637 O.3       1 <0>        -0.3117
      8 C7         -0.6610    3.0828    1.4138 C.3       1 <0>         0.0569
      9 C8         -0.7116    1.5698    1.2688 C.3       1 <0>        -0.1908
     10 C9         -0.0127    1.0858    0.0080 C.3       1 <0>         0.0560
     11 O2         -0.6919    1.5532   -1.1589 O.3       1 <0>        -0.3083
     12 Cl1         0.7686    1.6055   -3.7330 Cl        1 <0>        -0.0407
     13 C10         0.6575    6.7185   -2.8708 C.2       1 <0>        -0.0080
     14 C11         1.3261    6.8921   -4.0309 C.2       1 <0>        -0.2084
     15 C12         1.6780    8.2389   -4.4772 C.2       1 <0>         0.5469
     16 O3          1.3682    9.2040   -3.8030 O.2       1 <0>        -0.4760
     17 N1          2.3455    8.4122   -5.6352 N.am      1 <0>        -0.6299
     18 C13         2.6797    9.6914   -6.0592 C.2       1 <0>         0.3179
     19 N2          2.4315   10.8443   -5.4814 N.2       1 <0>        -0.5146
     20 C14         2.8241   12.0111   -6.0129 C.2       1 <0>         0.0660
     21 C15         3.4855   11.9316   -7.1913 C.2       1 <0>        -0.2402
     22 S1          3.5269   10.1800   -7.4940 S.3       1 <0>         0.0836
     23 C16         3.8831   13.2791   -7.7118 C.3       1 <0>        -0.0304
     24 C17         3.7630   14.2191   -6.4910 C.3       1 <0>        -0.1093
     25 C18         2.7139   13.4872   -5.6302 C.3       1 <0>        -0.0403
     26 H1         -0.6675    6.0355   -0.6173 H         1 <0>         0.1499
     27 H2          1.1947    4.3916   -4.1234 H         1 <0>         0.1484
     28 H3          0.3891    3.4083    1.3761 H         1 <0>         0.0616
     29 H4         -1.0965    3.3613    2.3848 H         1 <0>         0.1121
     30 H5         -0.2170    1.1019    2.1328 H         1 <0>         0.0966
     31 H6         -1.7602    1.2406    1.2241 H         1 <0>         0.0887
     32 H7          1.0200    1.4643   -0.0070 H         1 <0>         0.0599
     33 H8         -0.0004   -0.0141   -0.0052 H         1 <0>         0.1115
     34 H9          0.3775    7.5905   -2.2615 H         1 <0>         0.1492
     35 H10         1.6060    6.0201   -4.6402 H         1 <0>         0.1400
     36 H11         2.6255    7.5402   -6.2444 H         1 <0>         0.4553
     37 H12         4.9134   13.2349   -8.0947 H         1 <0>         0.0800
     38 H13         3.2024   13.5739   -8.5241 H         1 <0>         0.0860
     39 H14         4.7423   14.3063   -5.9977 H         1 <0>         0.0804
     40 H15         3.4309   15.2132   -6.8249 H         1 <0>         0.0903
     41 H16         1.6971   13.8470   -5.8461 H         1 <0>         0.0882
     42 H17         2.9241   13.6044   -4.5569 H         1 <0>         0.0829
@<TRIPOS>BOND
     1    1    6 ar
     2    1    2 ar
     3    1   26 1
     4    2    3 ar
     5    2   13 1
     6    3    4 ar
     7    3   27 1
     8    4    5 ar
     9    4   12 1
    10    5   11 1
    11    5    6 ar
    12    6    7 1
    13    7    8 1
    14    8    9 1
    15    8   28 1
    16    8   29 1
    17    9   10 1
    18    9   30 1
    19    9   31 1
    20   10   11 1
    21   10   32 1
    22   10   33 1
    23   13   14 2
    24   13   34 1
    25   14   15 1
    26   14   35 1
    27   15   16 2
    28   15   17 am
    29   17   18 1
    30   17   36 1
    31   18   22 1
    32   18   19 2
    33   19   20 1
    34   20   25 1
    35   20   21 2
    36   21   22 1
    37   21   23 1
    38   23   24 1
    39   23   37 1
    40   23   38 1
    41   24   25 1
    42   24   39 1
    43   24   40 1
    44   25   41 1
    45   25   42 1
