@<TRIPOS>MOLECULE
ZINC04807469
   36    37     0     0     0
SMALL
USER_CHARGES

@<TRIPOS>ATOM
      1 C1          5.2400    0.4229   -3.9663 C.ar      1 <0>        -0.1697
      2 C2          4.9801    1.3875   -3.0103 C.ar      1 <0>        -0.0914
      3 C3          4.4326    1.0268   -1.7945 C.ar      1 <0>        -0.1529
      4 C4          4.1433   -0.3049   -1.5330 C.ar      1 <0>         0.1425
      5 C5          4.4051   -1.2709   -2.4941 C.ar      1 <0>        -0.1715
      6 C6          4.9528   -0.9048   -3.7083 C.ar      1 <0>        -0.0896
      7 O1          3.6051   -0.6624   -0.3377 O.3       1 <0>        -0.2175
      8 C7          3.4571   -1.9755   -0.0784 C.2       1 <0>         0.0122
      9 C8          2.2276   -2.5293   -0.0834 C.2       1 <0>        -0.1779
     10 C9          1.0865   -1.7127   -0.2318 C.2       1 <0>         0.4960
     11 O2          1.2016   -0.4927   -0.2287 O.co2     1 <0>        -0.6699
     12 O3         -0.0195   -2.2235   -0.3637 O.co2     1 <0>        -0.7045
     13 C10         4.6654   -2.8260    0.2174 C.3       1 <0>         0.1611
     14 C11         5.0113   -2.7213    1.7041 C.3       1 <0>        -0.1379
     15 C12         6.2381   -3.5848    2.0044 C.3       1 <0>        -0.1124
     16 C13         5.9341   -5.0425    1.6529 C.3       1 <0>        -0.1193
     17 C14         5.5883   -5.1472    0.1662 C.3       1 <0>        -0.1130
     18 C15         4.3615   -4.2837   -0.1341 C.3       1 <0>        -0.1037
     19 O4          5.7722   -2.3688   -0.5625 O.3       1 <0>        -0.5461
     20 H1          5.6640    0.7076   -4.9180 H         1 <0>         0.1147
     21 H2          5.2058    2.4238   -3.2143 H         1 <0>         0.1214
     22 H3          4.2301    1.7806   -1.0480 H         1 <0>         0.1264
     23 H4          4.1813   -2.3081   -2.2929 H         1 <0>         0.1270
     24 H5          5.1565   -1.6562   -4.4568 H         1 <0>         0.1161
     25 H6          2.1163   -3.5980    0.0261 H         1 <0>         0.1203
     26 H7          5.2278   -1.6828    1.9545 H         1 <0>         0.0672
     27 H8          4.1671   -3.0700    2.2989 H         1 <0>         0.0740
     28 H9          7.0823   -3.2361    1.4095 H         1 <0>         0.0670
     29 H10         6.4845   -3.5102    3.0635 H         1 <0>         0.0587
     30 H11         6.8081   -5.6577    1.8668 H         1 <0>         0.0587
     31 H12         5.0899   -5.3913    2.2477 H         1 <0>         0.0599
     32 H13         6.4325   -4.7985   -0.4287 H         1 <0>         0.0707
     33 H14         5.3717   -6.1858   -0.0842 H         1 <0>         0.0597
     34 H15         3.5173   -4.6325    0.4607 H         1 <0>         0.0809
     35 H16         4.1151   -4.3583   -1.1933 H         1 <0>         0.0709
     36 H17         6.0211   -1.4502   -0.3914 H         1 <0>         0.3720
@<TRIPOS>BOND
     1    1    6 ar
     2    1    2 ar
     3    1   20 1
     4    2    3 ar
     5    2   21 1
     6    3    4 ar
     7    3   22 1
     8    4    5 ar
     9    4    7 1
    10    5    6 ar
    11    5   23 1
    12    6   24 1
    13    7    8 1
    14    8    9 2
    15    8   13 1
    16    9   10 1
    17    9   25 1
    18   10   11 2
    19   10   12 1
    20   13   18 1
    21   13   14 1
    22   13   19 1
    23   14   15 1
    24   14   26 1
    25   14   27 1
    26   15   16 1
    27   15   28 1
    28   15   29 1
    29   16   17 1
    30   16   30 1
    31   16   31 1
    32   17   18 1
    33   17   32 1
    34   17   33 1
    35   18   34 1
    36   18   35 1
    37   19   36 1
