@<TRIPOS>MOLECULE
ZINC40256629
   30    32     0     0     0
SMALL
USER_CHARGES

@<TRIPOS>ATOM
      1 C1         -0.0167    1.3779    0.0096 C.ar      1 <0>        -0.1056
      2 C2          1.1710    2.0835    0.0021 C.ar      1 <0>        -0.1017
      3 C3          2.3810    1.4107   -0.0136 C.ar      1 <0>        -0.0897
      4 C4          2.3997    0.0283   -0.0213 C.ar      1 <0>        -0.0938
      5 C5          1.2084   -0.6771   -0.0136 C.ar      1 <0>        -0.0888
      6 C6          0.0021   -0.0041    0.0020 C.ar      1 <0>        -0.1193
      7 C7         -1.2922   -0.7760    0.0108 C.3       1 <0>         0.2372
      8 H1         -1.1132   -1.7896   -0.3480 H         1 <0>         0.1322
      9 C8         -1.8361   -0.8289    1.4152 C.2       1 <0>        -0.1608
     10 C9         -1.6805   -1.7931    2.3547 C.2       1 <0>        -0.1481
     11 C10        -2.2776   -1.6278    3.5906 C.2       1 <0>        -0.1068
     12 C11        -3.0014   -0.5052    3.8259 C.2       1 <0>        -0.1763
     13 S1         -2.8458    0.3660    2.2753 S.3       1 <0>         0.1077
     14 Br1        -3.9284    0.0077    5.3922 Br        1 <0>         0.0420
     15 O1         -2.2385   -0.1289   -0.8424 O.3       1 <0>        -0.5382
     16 C12         3.8311   -0.4638   -0.0384 C.3       1 <0>        -0.0841
     17 C13         4.6714    0.7531   -0.4804 C.3       1 <0>        -0.1213
     18 C14         3.7985    1.9417   -0.0248 C.3       1 <0>        -0.0856
     19 H2         -0.9588    1.9056    0.0260 H         1 <0>         0.1202
     20 H3          1.1556    3.1633    0.0081 H         1 <0>         0.1242
     21 H4          1.2222   -1.7570   -0.0195 H         1 <0>         0.1235
     22 H5         -1.0990   -2.6778    2.1409 H         1 <0>         0.1432
     23 H6         -2.1696   -2.3812    4.3569 H         1 <0>         0.1440
     24 H7         -2.4460    0.7790   -0.5824 H         1 <0>         0.3760
     25 H8          4.1312   -0.7889    0.9578 H         1 <0>         0.0815
     26 H9          3.9421   -1.2796   -0.7527 H         1 <0>         0.0769
     27 H10         5.6356    0.7633    0.0278 H         1 <0>         0.0786
     28 H11         4.8024    0.7610   -1.5625 H         1 <0>         0.0738
     29 H12         3.8872    2.7682   -0.7298 H         1 <0>         0.0770
     30 H13         4.0897    2.2635    0.9750 H         1 <0>         0.0819
@<TRIPOS>BOND
     1    1    6 ar
     2    1    2 ar
     3    1   19 1
     4    2    3 ar
     5    2   20 1
     6    3   18 1
     7    3    4 ar
     8    4    5 ar
     9    4   16 1
    10    5    6 ar
    11    5   21 1
    12    6    7 1
    13    7    8 1
    14    7    9 1
    15    7   15 1
    16    9   13 1
    17    9   10 2
    18   10   11 1
    19   10   22 1
    20   11   12 2
    21   11   23 1
    22   12   13 1
    23   12   14 1
    24   15   24 1
    25   16   17 1
    26   16   25 1
    27   16   26 1
    28   17   18 1
    29   17   27 1
    30   17   28 1
    31   18   29 1
    32   18   30 1
