@<TRIPOS>MOLECULE
ZINC54600186
   38    40     0     0     0
SMALL
USER_CHARGES

@<TRIPOS>ATOM
      1 C1         -0.0166    1.3759    0.0096 C.ar      1 <0>        -0.1327
      2 C2          1.1698    2.0874    0.0021 C.ar      1 <0>        -0.0854
      3 C3          2.3815    1.4217   -0.0135 C.ar      1 <0>        -0.1591
      4 C4          2.4131    0.0393   -0.0213 C.ar      1 <0>         0.1220
      5 C5          1.2190   -0.6821   -0.0133 C.ar      1 <0>        -0.0450
      6 C6          0.0021   -0.0041    0.0020 C.ar      1 <0>        -0.0674
      7 C7          1.2450   -2.1659   -0.0220 C.2       1 <0>         0.1311
      8 C8          0.1199   -3.0115   -0.0211 C.2       1 <0>        -0.3320
      9 C9          0.5659   -4.2958   -0.0317 C.2       1 <0>         0.3733
     10 N1          1.9241   -4.2614   -0.0390 N.pl3     1 <0>        -0.3823
     11 N2          2.3240   -2.9191   -0.0377 N.2       1 <0>        -0.2767
     12 C10         2.8145   -5.4247   -0.0513 C.3       1 <0>         0.1821
     13 H1          2.2193   -6.3378   -0.0537 H         1 <0>         0.0958
     14 C11         3.6903   -5.3834   -1.3052 C.3       1 <0>        -0.1266
     15 C12         4.6202   -6.5984   -1.3180 C.3       1 <0>        -0.1192
     16 C13         5.5098   -6.5729   -0.0735 C.3       1 <0>        -0.1221
     17 C14         4.6340   -6.6141    1.1804 C.3       1 <0>        -0.1506
     18 C15         3.7041   -5.3992    1.1932 C.3       1 <0>         0.0979
     19 H2          4.2994   -4.4861    1.1957 H         1 <0>         0.0710
     20 O1          2.8862   -5.4378    2.3643 O.3       1 <0>        -0.5623
     21 N3         -0.2266   -5.4404   -0.0338 N.pl3     1 <0>        -0.8557
     22 F1          3.5972   -0.6110   -0.0370 F         1 <0>        -0.1232
     23 H3         -0.9599    1.9016    0.0260 H         1 <0>         0.1331
     24 H4          1.1495    3.1672    0.0081 H         1 <0>         0.1337
     25 H5          3.3047    1.9822   -0.0200 H         1 <0>         0.1371
     26 H6         -0.9253   -0.5575    0.0083 H         1 <0>         0.1367
     27 H7         -0.9131   -2.6965   -0.0131 H         1 <0>         0.1453
     28 H8          3.0565   -5.4016   -2.1918 H         1 <0>         0.0741
     29 H9          4.2855   -4.4703   -1.3027 H         1 <0>         0.0835
     30 H10         4.0249   -7.5115   -1.3204 H         1 <0>         0.0663
     31 H11         5.2441   -6.5690   -2.2113 H         1 <0>         0.0754
     32 H12         6.1723   -7.4384   -0.0826 H         1 <0>         0.0719
     33 H13         6.1050   -5.6598   -0.0710 H         1 <0>         0.0686
     34 H14         4.0388   -7.5273    1.1780 H         1 <0>         0.0726
     35 H15         5.2678   -6.5960    2.0670 H         1 <0>         0.0735
     36 H16         3.3846   -5.4243    3.1929 H         1 <0>         0.3813
     37 H17        -1.1934   -5.3609   -0.0277 H         1 <0>         0.4162
     38 H18         0.1879   -6.3173   -0.0413 H         1 <0>         0.3977
@<TRIPOS>BOND
     1    1    6 ar
     2    1    2 ar
     3    1   23 1
     4    2    3 ar
     5    2   24 1
     6    3    4 ar
     7    3   25 1
     8    4    5 ar
     9    4   22 1
    10    5    6 ar
    11    5    7 1
    12    6   26 1
    13    7   11 2
    14    7    8 1
    15    8    9 2
    16    8   27 1
    17    9   10 1
    18    9   21 1
    19   10   11 1
    20   10   12 1
    21   12   13 1
    22   12   18 1
    23   12   14 1
    24   14   15 1
    25   14   28 1
    26   14   29 1
    27   15   16 1
    28   15   30 1
    29   15   31 1
    30   16   17 1
    31   16   32 1
    32   16   33 1
    33   17   18 1
    34   17   34 1
    35   17   35 1
    36   18   19 1
    37   18   20 1
    38   20   36 1
    39   21   37 1
    40   21   38 1
