@<TRIPOS>MOLECULE
ZINC02914730
   37    40     0     0     0
SMALL
USER_CHARGES

@<TRIPOS>ATOM
      1 C1         -0.0167    1.3778    0.0096 C.ar      1 <0>        -0.1104
      2 C2          1.1711    2.0855    0.0021 C.ar      1 <0>        -0.0891
      3 C3          2.3776    1.4114   -0.0135 C.ar      1 <0>        -0.1110
      4 C4          2.3973    0.0292   -0.0216 C.ar      1 <0>        -0.0849
      5 C5          1.2095   -0.6792   -0.0136 C.ar      1 <0>        -0.0889
      6 C6          0.0021   -0.0041    0.0020 C.ar      1 <0>        -0.0851
      7 Br1         1.2358   -2.5700   -0.0253 Br        1 <0>        -0.0426
      8 C7          3.6719    2.1834   -0.0223 C.3       1 <0>         0.1971
      9 H1          3.4884    3.2013   -0.3662 H         1 <0>         0.1226
     10 C8          4.2608    2.2166    1.3927 C.3       1 <0>        -0.1420
     11 C9          4.4648    0.7845    1.9025 C.3       1 <0>         0.2069
     12 H2          3.4962    0.3267    2.1031 H         1 <0>         0.1009
     13 N1          5.1679    0.0144    0.8771 N.pl3     1 <0>        -0.4065
     14 C10         5.2417    0.3700   -0.4283 C.2       1 <0>         0.5223
     15 N2          5.9430   -0.5357   -1.0551 N.2       1 <0>        -0.5691
     16 C11         6.3295   -1.4791   -0.1895 C.2       1 <0>         0.2168
     17 N3          5.8763   -1.1811    1.0025 N.2       1 <0>        -0.3067
     18 N4          4.6367    1.5227   -0.9225 N.pl3     1 <0>        -0.7042
     19 C12         5.2828    0.8107    3.1679 C.ar      1 <0>        -0.0894
     20 C13         6.5560    1.3492    3.1566 C.ar      1 <0>        -0.0783
     21 C14         7.3067    1.3735    4.3168 C.ar      1 <0>        -0.1088
     22 C15         6.7837    0.8587    5.4897 C.ar      1 <0>        -0.0242
     23 C16         5.5095    0.3199    5.5004 C.ar      1 <0>        -0.1081
     24 C17         4.7576    0.3013    4.3408 C.ar      1 <0>        -0.0824
     25 Cl1         7.7262    0.8883    6.9473 Cl        1 <0>        -0.0645
     26 H3         -0.9592    1.9049    0.0260 H         1 <0>         0.1368
     27 H4          1.1560    3.1654    0.0080 H         1 <0>         0.1347
     28 H5          3.3402   -0.4974   -0.0346 H         1 <0>         0.1351
     29 H6         -0.9257   -0.5568    0.0083 H         1 <0>         0.1352
     30 H7          5.2195    2.7349    1.3743 H         1 <0>         0.0946
     31 H8          3.5770    2.7441    2.0577 H         1 <0>         0.1132
     32 H9          6.9211   -2.3487   -0.4346 H         1 <0>         0.2176
     33 H10         4.8374    1.8731   -1.8045 H         1 <0>         0.4302
     34 H11         6.9642    1.7507    2.2409 H         1 <0>         0.1251
     35 H12         8.3015    1.7939    4.3078 H         1 <0>         0.1356
     36 H13         5.1008   -0.0824    6.4156 H         1 <0>         0.1378
     37 H14         3.7610   -0.1150    4.3501 H         1 <0>         0.1337
@<TRIPOS>BOND
     1    1    6 ar
     2    1    2 ar
     3    1   26 1
     4    2    3 ar
     5    2   27 1
     6    3    4 ar
     7    3    8 1
     8    4    5 ar
     9    4   28 1
    10    5    6 ar
    11    5    7 1
    12    6   29 1
    13    8    9 1
    14    8   18 1
    15    8   10 1
    16   10   11 1
    17   10   30 1
    18   10   31 1
    19   11   12 1
    20   11   13 1
    21   11   19 1
    22   13   17 1
    23   13   14 1
    24   14   15 2
    25   14   18 1
    26   15   16 1
    27   16   17 2
    28   16   32 1
    29   18   33 1
    30   19   24 ar
    31   19   20 ar
    32   20   21 ar
    33   20   34 1
    34   21   22 ar
    35   21   35 1
    36   22   23 ar
    37   22   25 1
    38   23   24 ar
    39   23   36 1
    40   24   37 1
