@<TRIPOS>MOLECULE
ZINC05864012
   43    44     0     0     0
SMALL
USER_CHARGES

@<TRIPOS>ATOM
      1 C1         -0.0187    1.5258    0.0104 C.3       1 <0>        -0.1328
      2 C2          0.0021   -0.0041    0.0020 C.3       1 <0>        -0.0768
      3 C3          0.7421   -0.5109    1.2415 C.3       1 <0>        -0.1474
      4 C4         -1.4333   -0.5336    0.0129 C.3       1 <0>        -0.1474
      5 C5          0.7074   -0.4901   -1.2379 C.2       1 <0>         0.4988
      6 O1          1.1499    0.3083   -2.0359 O.2       1 <0>        -0.4037
      7 N1          0.8465   -1.8122   -1.4596 N.am      1 <0>        -0.6342
      8 C6          1.4773   -2.2468   -2.5685 C.2       1 <0>         0.4752
      9 S1          2.1020   -1.1195   -3.6954 S.2       1 <0>        -0.3706
     10 N2          1.6164   -3.5689   -2.7902 N.pl3     1 <0>        -0.5565
     11 C7          2.2656   -4.0163   -3.9314 C.2       1 <0>         0.0028
     12 C8          2.4943   -5.3235   -4.3234 C.2       1 <0>        -0.1087
     13 C9          3.2065   -5.5329   -5.5760 C.2       1 <0>        -0.0650
     14 C10         3.5622   -4.3903   -6.2003 C.2       1 <0>        -0.2516
     15 S2          2.9483   -3.0966   -5.1583 S.3       1 <0>         0.3953
     16 C11         4.3155   -4.2469   -7.4859 C.3       1 <0>        -0.0391
     17 C12         3.6811   -5.1582   -8.5451 C.3       1 <0>        -0.1162
     18 C13         4.3490   -6.5279   -8.4722 C.3       1 <0>        -0.1213
     19 C14         4.7467   -6.8452   -7.0320 C.3       1 <0>        -0.1227
     20 C15         3.5110   -6.9130   -6.1399 C.3       1 <0>        -0.0600
     21 C16         2.0481   -6.4274   -3.5278 C.1       1 <0>         0.2656
     22 N3          1.6942   -7.3031   -2.8967 N.1       1 <0>        -0.4306
     23 H1          1.0039    1.9031    0.0027 H         1 <0>         0.0683
     24 H2         -0.5459    1.8868   -0.8726 H         1 <0>         0.0683
     25 H3         -0.5289    1.8773    0.9072 H         1 <0>         0.0713
     26 H4          0.2319   -0.1594    2.1383 H         1 <0>         0.0797
     27 H5          0.7568   -1.6008    1.2356 H         1 <0>         0.0572
     28 H6          1.7647   -0.1336    1.2338 H         1 <0>         0.0677
     29 H7         -1.9605   -0.1726   -0.8702 H         1 <0>         0.0676
     30 H8         -1.4185   -1.6235    0.0069 H         1 <0>         0.0571
     31 H9         -1.9435   -0.1821    0.9097 H         1 <0>         0.0797
     32 H10         0.4926   -2.4509   -0.8211 H         1 <0>         0.4161
     33 H11         1.2625   -4.2076   -2.1517 H         1 <0>         0.4144
     34 H12         4.2692   -3.2109   -7.8217 H         1 <0>         0.0737
     35 H13         5.3555   -4.5352   -7.3328 H         1 <0>         0.0863
     36 H14         2.6140   -5.2606   -8.3481 H         1 <0>         0.0667
     37 H15         3.8334   -4.7292   -9.5355 H         1 <0>         0.0682
     38 H16         3.6547   -7.2878   -8.8308 H         1 <0>         0.0614
     39 H17         5.2392   -6.5296   -9.1012 H         1 <0>         0.0632
     40 H18         5.2643   -7.8040   -7.0041 H         1 <0>         0.0635
     41 H19         5.4152   -6.0673   -6.6631 H         1 <0>         0.0755
     42 H20         3.6938   -7.6074   -5.3198 H         1 <0>         0.0650
     43 H21         2.6600   -7.2611   -6.7253 H         1 <0>         0.0762
@<TRIPOS>BOND
     1    1    2 1
     2    1   23 1
     3    1   24 1
     4    1   25 1
     5    2    3 1
     6    2    4 1
     7    2    5 1
     8    3   26 1
     9    3   27 1
    10    3   28 1
    11    4   29 1
    12    4   30 1
    13    4   31 1
    14    5    6 2
    15    5    7 am
    16    7    8 1
    17    7   32 1
    18    8    9 2
    19    8   10 1
    20   10   11 1
    21   10   33 1
    22   11   15 1
    23   11   12 2
    24   12   13 1
    25   12   21 1
    26   13   20 1
    27   13   14 2
    28   14   15 1
    29   14   16 1
    30   16   17 1
    31   16   34 1
    32   16   35 1
    33   17   18 1
    34   17   36 1
    35   17   37 1
    36   18   19 1
    37   18   38 1
    38   18   39 1
    39   19   20 1
    40   19   40 1
    41   19   41 1
    42   20   42 1
    43   20   43 1
    44   21   22 3
