@<TRIPOS>MOLECULE
ZINC09190056
   45    49     0     0     0
SMALL
USER_CHARGES
styryl-(2-thienyl)BLAHone
@<TRIPOS>ATOM
      1 C1         -0.0126    1.0758    0.0080 C.ar      1 <0>        -0.1172
      2 C2         -1.2216    1.7482    0.0174 C.ar      1 <0>        -0.1191
      3 C3         -1.2471    3.1276    0.0308 C.ar      1 <0>        -0.1129
      4 C4         -0.0501    3.8446    0.0236 C.ar      1 <0>        -0.0629
      5 C5          1.1659    3.1605    0.0084 C.ar      1 <0>        -0.1069
      6 C6          1.1777    1.7808    0.0004 C.ar      1 <0>        -0.1193
      7 C7         -0.0702    5.3226    0.0327 C.2       1 <0>        -0.0978
      8 C8         -1.2270    5.9697    0.0473 C.2       1 <0>        -0.1502
      9 C9         -1.2475    7.4765    0.0566 C.3       1 <0>        -0.0467
     10 H1         -0.2263    7.8577    0.0495 H         1 <0>         0.0927
     11 C10        -1.9977    7.9895   -1.1742 C.3       1 <0>        -0.0919
     12 C11        -2.0558    9.4985   -1.1417 C.2       1 <0>         0.2605
     13 C12        -2.0878   10.1665    0.0312 C.2       1 <0>        -0.3190
     14 C13        -2.1441   11.6770    0.0954 C.3       1 <0>         0.3233
     15 H2         -2.9001   11.9803    0.8197 H         1 <0>         0.1242
     16 N1         -2.4835   12.2196   -1.2137 N.pl3     1 <0>        -0.3867
     17 C14        -2.4442   11.4909   -2.3568 C.2       1 <0>         0.4899
     18 N2         -2.7926   12.2699   -3.3435 N.2       1 <0>        -0.5421
     19 C15        -3.0656   13.4914   -2.8741 C.2       1 <0>         0.2187
     20 N3         -2.8902   13.5030   -1.5756 N.2       1 <0>        -0.2891
     21 N4         -2.0813   10.1540   -2.3495 N.pl3     1 <0>        -0.6061
     22 C16        -0.8013   12.2096    0.5248 C.2       1 <0>        -0.1618
     23 C17        -0.4853   12.9476    1.6169 C.2       1 <0>        -0.1152
     24 C18         0.8293   13.3283    1.8111 C.2       1 <0>        -0.1570
     25 C19         1.7634   12.9524    0.9037 C.2       1 <0>        -0.1628
     26 S1          0.7872   12.0255   -0.2689 S.3       1 <0>         0.0371
     27 C20        -2.0656    9.4751    1.2561 C.2       1 <0>         0.4127
     28 O1         -2.1195   10.1040    2.2946 O.2       1 <0>        -0.4610
     29 C21        -1.9761    7.9753    1.3090 C.3       1 <0>        -0.1471
     30 H3          0.0021   -0.0041    0.0020 H         1 <0>         0.1228
     31 H4         -2.1474    1.1920    0.0184 H         1 <0>         0.1239
     32 H5         -2.1916    3.6513    0.0422 H         1 <0>         0.1248
     33 H6          2.0958    3.7097    0.0031 H         1 <0>         0.1244
     34 H7          2.1183    1.2501   -0.0115 H         1 <0>         0.1242
     35 H8          0.8577    5.8752    0.0276 H         1 <0>         0.1216
     36 H9         -2.1549    5.4170    0.0524 H         1 <0>         0.1219
     37 H10        -1.4787    7.6658   -2.0764 H         1 <0>         0.1024
     38 H11        -3.0110    7.5880   -1.1747 H         1 <0>         0.1137
     39 H12        -3.3815   14.3347   -3.4704 H         1 <0>         0.2283
     40 H13        -1.8516    9.6944   -3.1722 H         1 <0>         0.4413
     41 H14        -1.2490   13.2337    2.3249 H         1 <0>         0.1371
     42 H15         1.1078   13.9169    2.6727 H         1 <0>         0.1381
     43 H16         2.8238   13.1569    0.8946 H         1 <0>         0.1879
     44 H17        -2.8950    7.5820    1.3389 H         1 <0>         0.0968
     45 H18        -1.4224    7.6733    2.1980 H         1 <0>         0.1048
@<TRIPOS>BOND
     1    1    6 ar
     2    1    2 ar
     3    1   30 1
     4    2    3 ar
     5    2   31 1
     6    3    4 ar
     7    3   32 1
     8    4    5 ar
     9    4    7 1
    10    5    6 ar
    11    5   33 1
    12    6   34 1
    13    7    8 2
    14    7   35 1
    15    8    9 1
    16    8   36 1
    17    9   10 1
    18    9   29 1
    19    9   11 1
    20   11   12 1
    21   11   37 1
    22   11   38 1
    23   12   21 1
    24   12   13 2
    25   13   14 1
    26   13   27 1
    27   14   15 1
    28   14   16 1
    29   14   22 1
    30   16   20 1
    31   16   17 1
    32   17   18 2
    33   17   21 1
    34   18   19 1
    35   19   20 2
    36   19   39 1
    37   21   40 1
    38   22   26 1
    39   22   23 2
    40   23   24 1
    41   23   41 1
    42   24   25 2
    43   24   42 1
    44   25   26 1
    45   25   43 1
    46   27   28 2
    47   27   29 1
    48   29   44 1
    49   29   45 1
