@<TRIPOS>MOLECULE
ZINC40113135
   47    49     0     0     0
SMALL
USER_CHARGES

@<TRIPOS>ATOM
      1 C1          0.7612    1.3460    0.0588 C.3       1 <0>        -0.1231
      2 C2          0.7601   -0.1601    0.1123 C.2       1 <0>        -0.1191
      3 C3          0.5446   -0.7749    1.2488 C.2       1 <0>        -0.1386
      4 C4          0.2978    0.0238    2.5027 C.3       1 <0>        -0.0983
      5 H1         -0.0194    1.0551    2.3483 H         1 <0>         0.1263
      6 C5         -0.2756   -0.7182    3.7116 C.3       1 <0>        -0.0604
      7 H2         -0.9698   -0.1750    4.3528 H         1 <0>         0.1426
      8 C6          1.1874   -0.2681    3.7127 C.3       1 <0>        -0.0804
      9 C7          1.5633    0.9100    4.6138 C.3       1 <0>        -0.1181
     10 C8          2.2595   -1.3485    3.5572 C.3       1 <0>        -0.1159
     11 C9         -0.5509   -2.1918    3.5571 C.2       1 <0>         0.2225
     12 N1         -0.3708   -3.0857    4.4804 N.2       1 <0>        -0.4071
     13 C10        -0.7248   -4.3044    3.9827 C.2       1 <0>        -0.0584
     14 C11        -1.1388   -4.0973    2.6779 C.2       1 <0>         0.3255
     15 O1         -1.0251   -2.7768    2.4451 O.3       1 <0>        -0.2043
     16 N2         -1.5854   -5.0556    1.7922 N.pl3     1 <0>        -0.6816
     17 C12        -1.6563   -6.4592    2.2060 C.3       1 <0>         0.1742
     18 C13        -2.1721   -7.2945    1.0626 C.ar      1 <0>        -0.1292
     19 C14        -3.5311   -7.5032    0.9179 C.ar      1 <0>        -0.0635
     20 C15        -4.0053   -8.2687   -0.1305 C.ar      1 <0>        -0.1553
     21 C16        -3.1189   -8.8266   -1.0360 C.ar      1 <0>         0.1165
     22 C17        -1.7581   -8.6169   -0.8900 C.ar      1 <0>        -0.1553
     23 C18        -1.2865   -7.8467    0.1561 C.ar      1 <0>        -0.0636
     24 F1         -3.5814   -9.5754   -2.0610 F         1 <0>        -0.1339
     25 C19        -0.6771   -5.5568    4.6754 C.1       1 <0>         0.3028
     26 N3         -0.6392   -6.5504    5.2248 N.1       1 <0>        -0.4116
     27 C20         1.0068   -0.9588   -1.1416 C.3       1 <0>        -0.1180
     28 H3          1.7705    1.7152    0.2405 H         1 <0>         0.0688
     29 H4          0.4256    1.6749   -0.9247 H         1 <0>         0.0614
     30 H5          0.0883    1.7372    0.8218 H         1 <0>         0.0679
     31 H6          0.5437   -1.8542    1.2872 H         1 <0>         0.1105
     32 H7          0.6577    1.3575    5.0234 H         1 <0>         0.0630
     33 H8          2.1948    0.5568    5.4290 H         1 <0>         0.0681
     34 H9          2.1051    1.6548    4.0309 H         1 <0>         0.0672
     35 H10         2.9445   -1.0681    2.7570 H         1 <0>         0.0638
     36 H11         2.8129   -1.4484    4.4909 H         1 <0>         0.0661
     37 H12         1.7848   -2.2988    3.3128 H         1 <0>         0.0553
     38 H13        -1.8526   -4.8003    0.8954 H         1 <0>         0.4159
     39 H14        -0.6621   -6.8052    2.4891 H         1 <0>         0.0835
     40 H15        -2.3300   -6.5534    3.0577 H         1 <0>         0.0836
     41 H16        -4.2223   -7.0682    1.6246 H         1 <0>         0.1377
     42 H17        -5.0670   -8.4319   -0.2431 H         1 <0>         0.1417
     43 H18        -1.0657   -9.0518   -1.5956 H         1 <0>         0.1416
     44 H19        -0.2254   -7.6793    0.2676 H         1 <0>         0.1375
     45 H20         2.0753   -1.1452   -1.2492 H         1 <0>         0.0673
     46 H21         0.4769   -1.9091   -1.0772 H         1 <0>         0.0602
     47 H22         0.6467   -0.3998   -2.0052 H         1 <0>         0.0642
@<TRIPOS>BOND
     1    1    2 1
     2    1   28 1
     3    1   29 1
     4    1   30 1
     5    2    3 2
     6    2   27 1
     7    3    4 1
     8    3   31 1
     9    4    5 1
    10    4    8 1
    11    4    6 1
    12    6    7 1
    13    6    8 1
    14    6   11 1
    15    8    9 1
    16    8   10 1
    17    9   32 1
    18    9   33 1
    19    9   34 1
    20   10   35 1
    21   10   36 1
    22   10   37 1
    23   11   15 1
    24   11   12 2
    25   12   13 1
    26   13   14 2
    27   13   25 1
    28   14   15 1
    29   14   16 1
    30   16   17 1
    31   16   38 1
    32   17   18 1
    33   17   39 1
    34   17   40 1
    35   18   23 ar
    36   18   19 ar
    37   19   20 ar
    38   19   41 1
    39   20   21 ar
    40   20   42 1
    41   21   22 ar
    42   21   24 1
    43   22   23 ar
    44   22   43 1
    45   23   44 1
    46   25   26 3
    47   27   45 1
    48   27   46 1
    49   27   47 1
