@<TRIPOS>MOLECULE
ZINC61670506
   43    44     0     0     0
SMALL
USER_CHARGES

@<TRIPOS>ATOM
      1 C1          1.8472   -2.1477    2.4395 C.3       1 <0>        -0.1548
      2 C2          1.0108   -1.7525    1.2208 C.3       1 <0>        -0.1251
      3 C3          1.6459   -2.3338   -0.0439 C.3       1 <0>        -0.1249
      4 C4          0.8096   -1.9386   -1.2626 C.3       1 <0>        -0.1137
      5 C5          1.5135   -2.4068   -2.5378 C.3       1 <0>        -0.1003
      6 H1          2.5318   -2.0185   -2.5542 H         1 <0>         0.0787
      7 C6          0.7512   -1.8908   -3.7599 C.3       1 <0>        -0.1221
      8 C7          0.8377   -0.3640   -3.8077 C.3       1 <0>        -0.1548
      9 C8          1.5502   -3.9361   -2.5679 C.3       1 <0>         0.1204
     10 N1          2.3272   -4.3832   -3.7266 N.am      1 <0>        -0.7224
     11 C9          2.4955   -5.7003   -3.9576 C.2       1 <0>         0.5586
     12 O1          2.0024   -6.5174   -3.2044 O.2       1 <0>        -0.5334
     13 C10         3.2789   -6.1511   -5.1257 C.ar      1 <0>        -0.0873
     14 C11         3.8516   -5.2055   -5.9900 C.ar      1 <0>        -0.1317
     15 C12         4.5757   -5.6053   -7.0698 C.ar      1 <0>        -0.0420
     16 C13         4.7552   -6.9727   -7.3279 C.ar      1 <0>        -0.1590
     17 C14         5.4355   -7.6890   -8.3406 C.2       1 <0>         0.0715
     18 N2          5.2933   -8.9639   -8.1181 N.2       1 <0>        -0.2406
     19 N3          4.5238   -9.1610   -6.9651 N.pl3     1 <0>        -0.4999
     20 H2          4.2750  -10.0183   -6.5857 H         1 <0>         0.4450
     21 C15         4.1834   -7.9288   -6.4650 C.ar      1 <0>         0.1176
     22 C16         3.4507   -7.5107   -5.3614 C.ar      1 <0>        -0.0721
     23 H3          1.8841   -3.2343    2.5179 H         1 <0>         0.0538
     24 H4          2.8586   -1.7569    2.3282 H         1 <0>         0.0532
     25 H5          1.3947   -1.7335    3.3405 H         1 <0>         0.0536
     26 H6         -0.0006   -2.1432    1.3321 H         1 <0>         0.0610
     27 H7          0.9739   -0.6659    1.1424 H         1 <0>         0.0605
     28 H8          2.6574   -1.9430   -0.1552 H         1 <0>         0.0621
     29 H9          1.6828   -3.4204    0.0345 H         1 <0>         0.0642
     30 H10        -0.1724   -2.4070   -1.1967 H         1 <0>         0.0660
     31 H11         0.6943   -0.8550   -1.2882 H         1 <0>         0.0722
     32 H12         1.1913   -2.3082   -4.6655 H         1 <0>         0.0613
     33 H13        -0.2936   -2.1935   -3.6909 H         1 <0>         0.0658
     34 H14         0.3767   -0.0025   -4.7269 H         1 <0>         0.0548
     35 H15         0.3145    0.0566   -2.9490 H         1 <0>         0.0575
     36 H16         1.8837   -0.0583   -3.7812 H         1 <0>         0.0546
     37 H17         2.0147   -4.3064   -1.6541 H         1 <0>         0.0737
     38 H18         0.5336   -4.3225   -2.6412 H         1 <0>         0.0703
     39 H19         2.7206   -3.7313   -4.3275 H         1 <0>         0.4010
     40 H20         3.7160   -4.1517   -5.7964 H         1 <0>         0.1296
     41 H21         5.0125   -4.8698   -7.7290 H         1 <0>         0.1372
     42 H22         5.9821   -7.2508   -9.1625 H         1 <0>         0.1980
     43 H23         3.0131   -8.2374   -4.6929 H         1 <0>         0.1419
@<TRIPOS>BOND
     1    1    2 1
     2    1   23 1
     3    1   24 1
     4    1   25 1
     5    2    3 1
     6    2   26 1
     7    2   27 1
     8    3    4 1
     9    3   28 1
    10    3   29 1
    11    4    5 1
    12    4   30 1
    13    4   31 1
    14    5    6 1
    15    5    7 1
    16    5    9 1
    17    7    8 1
    18    7   32 1
    19    7   33 1
    20    8   34 1
    21    8   35 1
    22    8   36 1
    23    9   10 1
    24    9   37 1
    25    9   38 1
    26   10   11 am
    27   10   39 1
    28   11   12 2
    29   11   13 1
    30   13   22 ar
    31   13   14 ar
    32   14   15 ar
    33   14   40 1
    34   15   16 ar
    35   15   41 1
    36   16   21 ar
    37   16   17 1
    38   17   18 2
    39   17   42 1
    40   18   19 1
    41   19   20 1
    42   19   21 1
    43   21   22 ar
    44   22   43 1
