@<TRIPOS>MOLECULE
ZINC36644047
   25    25     0     0     0
SMALL
USER_CHARGES

@<TRIPOS>ATOM
      1 C1         -0.0187    1.5258    0.0104 C.3       1 <0>        -0.1538
      2 C2          0.0021   -0.0041    0.0020 C.3       1 <0>         0.0595
      3 O1          0.6932   -0.4774    1.1597 O.3       1 <0>        -0.3401
      4 C3          0.8006   -1.8076    1.3039 C.2       1 <0>         0.4902
      5 O2          0.3237   -2.5457    0.4746 O.2       1 <0>        -0.4780
      6 C4          1.5162   -2.3806    2.5000 C.3       1 <0>        -0.0588
      7 H1          1.4254   -1.7053    3.3508 H         1 <0>         0.1538
      8 C5          0.9318   -3.7722    2.8569 C.3       1 <0>        -0.0908
      9 S1          2.2379   -4.5624    3.8739 S.3       1 <0>        -0.0840
     10 C6          3.7413   -4.1162    3.0241 C.2       1 <0>         0.2099
     11 N1          4.9023   -4.7110    3.0665 N.2       1 <0>        -0.4273
     12 C7          6.0246   -4.1833    2.2867 C.3       1 <0>         0.1587
     13 C8          7.0788   -3.7134    3.2002 C.1       1 <0>        -0.2026
     14 C9          7.9197   -3.3385    3.9287 C.1       1 <0>        -0.1591
     15 S2          3.2779   -2.6632    2.1049 S.3       1 <0>        -0.1610
     16 H2          1.0039    1.9031    0.0027 H         1 <0>         0.0690
     17 H3         -0.5459    1.8868   -0.8726 H         1 <0>         0.0839
     18 H4         -0.5289    1.8773    0.9072 H         1 <0>         0.0690
     19 H5         -1.0205   -0.3814    0.0098 H         1 <0>         0.0733
     20 H6          0.5123   -0.3556   -0.8948 H         1 <0>         0.0727
     21 H7          0.0131   -3.6636    3.4334 H         1 <0>         0.1514
     22 H8          0.7493   -4.3526    1.9525 H         1 <0>         0.1305
     23 H9          6.4232   -4.9697    1.6457 H         1 <0>         0.1268
     24 H10         5.6803   -3.3523    1.6710 H         1 <0>         0.0819
     25 H11         8.6717   -3.0033    4.5803 H         1 <0>         0.2248
@<TRIPOS>BOND
     1    1    2 1
     2    1   16 1
     3    1   17 1
     4    1   18 1
     5    2    3 1
     6    2   19 1
     7    2   20 1
     8    3    4 1
     9    4    5 2
    10    4    6 1
    11    6    7 1
    12    6   15 1
    13    6    8 1
    14    8    9 1
    15    8   21 1
    16    8   22 1
    17    9   10 1
    18   10   11 2
    19   10   15 1
    20   11   12 1
    21   12   13 1
    22   12   23 1
    23   12   24 1
    24   13   14 3
    25   14   25 1
