@<TRIPOS>MOLECULE
ZINC35644783
   66    69     0     0     0
SMALL
USER_CHARGES

@<TRIPOS>ATOM
      1 C1         -0.4792    1.4849    0.1816 C.3       1 <0>        -0.1466
      2 C2         -0.0365    0.0236    0.0839 C.3       1 <0>        -0.0919
      3 H1         -0.9136   -0.6234    0.0963 H         1 <0>         0.0674
      4 C3          0.7359   -0.1892   -1.2196 C.3       1 <0>        -0.0866
      5 C4         -0.1688    0.1419   -2.4083 C.3       1 <0>        -0.1853
      6 C5          0.5919   -0.0677   -3.6922 C.2       1 <0>         0.4877
      7 O1          1.7502   -0.4467   -3.6596 O.co2     1 <0>        -0.6997
      8 O2          0.0490    0.1417   -4.7636 O.co2     1 <0>        -0.7125
      9 C6          0.8630   -0.3158    1.2693 C.3       1 <0>        -0.0689
     10 H2          1.7786    0.2603    1.2519 H         1 <0>         0.0822
     11 C7          0.1042   -0.1042    2.6053 C.3       1 <0>        -0.1257
     12 C8          0.3362   -1.3937    3.4472 C.3       1 <0>        -0.1017
     13 C9          1.5588   -2.0169    2.7537 C.3       1 <0>        -0.0669
     14 H3          2.4321   -1.3697    2.9787 H         1 <0>         0.0701
     15 C10         1.1819   -1.8283    1.2686 C.3       1 <0>        -0.0431
     16 C11         2.3183   -2.2420    0.3746 C.3       1 <0>         0.1145
     17 H4          1.9599   -2.2965   -0.6664 H         1 <0>         0.0704
     18 C12         2.8861   -3.6077    0.7754 C.3       1 <0>        -0.1431
     19 C13         2.0855   -4.2999    1.8621 C.3       1 <0>        -0.0662
     20 H5          1.0999   -4.5761    1.4707 H         1 <0>         0.0826
     21 C14         1.9145   -3.4282    3.1027 C.3       1 <0>        -0.0568
     22 H6          2.8928   -3.3947    3.6249 H         1 <0>         0.0692
     23 C15         0.9201   -4.0857    4.0581 C.3       1 <0>         0.1167
     24 H7         -0.0612   -4.1443    3.5936 H         1 <0>         0.0576
     25 C16         1.4137   -5.4982    4.3981 C.3       1 <0>        -0.1471
     26 C17         2.7908   -5.7291    3.7839 C.3       1 <0>        -0.0651
     27 H8          3.4799   -4.9602    4.1612 H         1 <0>         0.0786
     28 C18         2.7356   -5.6339    2.2616 C.3       1 <0>        -0.0554
     29 C19         4.1495   -5.7207    1.6900 C.3       1 <0>        -0.1056
     30 C20         4.7932   -7.0616    2.0504 C.3       1 <0>        -0.1717
     31 C21         4.6771   -7.3006    3.5369 C.2       1 <0>         0.3637
     32 O3          5.6388   -7.6531    4.1808 O.2       1 <0>        -0.4644
     33 C22         3.3389   -7.0932    4.2110 C.3       1 <0>        -0.1652
     34 C23         1.8800   -6.7651    1.6825 C.3       1 <0>        -0.1467
     35 O4          0.8402   -3.3289    5.2694 O.3       1 <0>        -0.5598
     36 O5          3.3651   -1.2594    0.4227 O.3       1 <0>        -0.5614
     37 C24        -0.1149   -2.5418    0.8859 C.3       1 <0>        -0.1507
     38 H9          0.3979    2.1319    0.1692 H         1 <0>         0.0492
     39 H10        -1.1216    1.7273   -0.6650 H         1 <0>         0.0548
     40 H11        -1.0295    1.6365    1.1103 H         1 <0>         0.0447
     41 H12         1.6092    0.4628   -1.2351 H         1 <0>         0.0578
     42 H13         1.0572   -1.2286   -1.2860 H         1 <0>         0.0648
     43 H14        -1.0422   -0.5101   -2.3928 H         1 <0>         0.0493
     44 H15        -0.4902    1.1813   -2.3419 H         1 <0>         0.0553
     45 H16         0.5074    0.7592    3.1314 H         1 <0>         0.0556
     46 H17        -0.9591    0.0289    2.4153 H         1 <0>         0.0601
     47 H18         0.5862   -1.1192    4.4757 H         1 <0>         0.0640
     48 H19        -0.5269   -2.0448    3.4246 H         1 <0>         0.0619
     49 H20         2.9220   -4.2515   -0.1138 H         1 <0>         0.0673
     50 H21         3.9204   -3.4691    1.1195 H         1 <0>         0.0720
     51 H22         1.4890   -5.5876    5.4871 H         1 <0>         0.0707
     52 H23         0.6995   -6.2327    4.0379 H         1 <0>         0.0708
     53 H24         4.1116   -5.6260    0.6028 H         1 <0>         0.0834
     54 H25         4.7576   -4.9107    2.0984 H         1 <0>         0.0700
     55 H26         4.3197   -7.8733    1.5015 H         1 <0>         0.1005
     56 H27         5.8541   -7.0320    1.7756 H         1 <0>         0.0857
     57 H28         3.4853   -7.0956    5.2968 H         1 <0>         0.0842
     58 H29         2.6540   -7.8921    3.9482 H         1 <0>         0.1003
     59 H30         1.8425   -6.6732    0.5971 H         1 <0>         0.0619
     60 H31         2.3185   -7.7263    1.9509 H         1 <0>         0.0551
     61 H32         0.8701   -6.7007    2.0877 H         1 <0>         0.0589
     62 H33         0.2249   -3.6927    5.9207 H         1 <0>         0.3712
     63 H34         4.1275   -1.4693   -0.1339 H         1 <0>         0.3738
     64 H35        -0.3664   -2.3084   -0.1487 H         1 <0>         0.0684
     65 H36         0.0173   -3.6184    0.9936 H         1 <0>         0.0541
     66 H37        -0.9203   -2.2074    1.5399 H         1 <0>         0.0617
@<TRIPOS>BOND
     1    1    2 1
     2    1   38 1
     3    1   39 1
     4    1   40 1
     5    2    3 1
     6    2    4 1
     7    2    9 1
     8    4    5 1
     9    4   41 1
    10    4   42 1
    11    5    6 1
    12    5   43 1
    13    5   44 1
    14    6    7 2
    15    6    8 1
    16    9   10 1
    17    9   15 1
    18    9   11 1
    19   11   12 1
    20   11   45 1
    21   11   46 1
    22   12   13 1
    23   12   47 1
    24   12   48 1
    25   13   14 1
    26   13   21 1
    27   13   15 1
    28   15   16 1
    29   15   37 1
    30   16   17 1
    31   16   18 1
    32   16   36 1
    33   18   19 1
    34   18   49 1
    35   18   50 1
    36   19   20 1
    37   19   28 1
    38   19   21 1
    39   21   22 1
    40   21   23 1
    41   23   24 1
    42   23   25 1
    43   23   35 1
    44   25   26 1
    45   25   51 1
    46   25   52 1
    47   26   27 1
    48   26   33 1
    49   26   28 1
    50   28   29 1
    51   28   34 1
    52   29   30 1
    53   29   53 1
    54   29   54 1
    55   30   31 1
    56   30   55 1
    57   30   56 1
    58   31   32 2
    59   31   33 1
    60   33   57 1
    61   33   58 1
    62   34   59 1
    63   34   60 1
    64   34   61 1
    65   35   62 1
    66   36   63 1
    67   37   64 1
    68   37   65 1
    69   37   66 1
