@<TRIPOS>MOLECULE
ZINC02712757
   34    35     0     0     0
SMALL
USER_CHARGES

@<TRIPOS>ATOM
      1 C1          0.6208    1.5168   -0.3362 C.3       1 <0>        -0.1082
      2 C2          0.5530    0.0116   -0.3077 C.ar      1 <0>        -0.1238
      3 C3          0.7115   -0.7073   -1.4794 C.ar      1 <0>        -0.0902
      4 C4          0.6506   -2.0849   -1.4610 C.ar      1 <0>        -0.1278
      5 C5          0.4283   -2.7555   -0.2556 C.ar      1 <0>         0.1586
      6 C6          0.2691   -2.0246    0.9237 C.ar      1 <0>        -0.1686
      7 C7          0.3379   -0.6460    0.8918 C.ar      1 <0>        -0.0086
      8 Cl1         0.1480    0.2650    2.3573 Cl        1 <0>        -0.0844
      9 N1          0.3664   -4.1220   -0.2307 N.2       1 <0>        -0.5954
     10 C8          1.0005   -4.7885    0.6988 C.2       1 <0>         0.3112
     11 C9          0.9344   -6.2493    0.7254 C.2       1 <0>        -0.4717
     12 C10         1.6030   -6.9635    1.7306 C.2       1 <0>         0.4148
     13 O1          2.3983   -6.3125    2.6060 O.3       1 <0>        -0.6117
     14 C11         1.4442   -8.3643    1.8269 C.2       1 <0>        -0.0346
     15 C12         2.1449   -9.2078    2.6680 C.2       1 <0>        -0.1440
     16 C13         1.6628  -10.5012    2.4271 C.2       1 <0>        -0.2286
     17 C14         0.7096  -10.4022    1.4719 C.2       1 <0>        -0.0234
     18 O2          0.5766   -9.1176    1.1179 O.3       1 <0>        -0.1574
     19 C15         0.1975   -6.9406   -0.2607 C.2       1 <0>         0.4487
     20 O3          0.7746   -7.6259   -1.0811 O.2       1 <0>        -0.4255
     21 C16        -1.3049   -6.8284   -0.2955 C.3       1 <0>         0.4153
     22 F1         -1.8720   -8.0852   -0.0587 F         1 <0>        -0.1831
     23 F2         -1.7286   -5.9321    0.6916 F         1 <0>        -0.1672
     24 F3         -1.7088   -6.3637   -1.5518 F         1 <0>        -0.1787
     25 H1          1.6516    1.8370   -0.1846 H         1 <0>         0.0663
     26 H2          0.2663    1.8783   -1.3015 H         1 <0>         0.0634
     27 H3         -0.0064    1.9239    0.4569 H         1 <0>         0.0668
     28 H4          0.8829   -0.1881   -2.4108 H         1 <0>         0.1260
     29 H5          0.7742   -2.6443   -2.3765 H         1 <0>         0.1270
     30 H6          0.0970   -2.5366    1.8589 H         1 <0>         0.1286
     31 H7          1.5730   -4.2602    1.4468 H         1 <0>         0.1013
     32 H8          2.9133   -8.9256    3.3724 H         1 <0>         0.1553
     33 H9          1.9911  -11.4081    2.9130 H         1 <0>         0.1490
     34 H10         0.1436  -11.2265    1.0637 H         1 <0>         0.2006
@<TRIPOS>BOND
     1    1    2 1
     2    1   25 1
     3    1   26 1
     4    1   27 1
     5    2    7 ar
     6    2    3 ar
     7    3    4 ar
     8    3   28 1
     9    4    5 ar
    10    4   29 1
    11    5    6 ar
    12    5    9 1
    13    6    7 ar
    14    6   30 1
    15    7    8 1
    16    9   10 2
    17   10   31 1
    18   10   11 1
    19   11   12 2
    20   11   19 1
    21   12   13 1
    22   12   14 1
    23   14   18 1
    24   14   15 2
    25   15   16 1
    26   15   32 1
    27   16   17 2
    28   16   33 1
    29   17   18 1
    30   17   34 1
    31   19   20 2
    32   19   21 1
    33   21   22 1
    34   21   23 1
    35   21   24 1
