@<TRIPOS>MOLECULE
*****
 23 24 0 0 0
SMALL
GASTEIGER

@<TRIPOS>ATOM
      1 N          13.9414   -9.2451    0.0000 N.ar    1  UNL1       -0.2733
      2 C          14.6568   -8.8258    0.0000 C.ar    1  UNL1        0.3531
      3 C          13.2311   -8.8302    0.0000 C.ar    1  UNL1        0.0963
      4 N          14.6568   -7.9945    0.0000 N.ar    1  UNL1       -0.1524
      5 O          15.3761   -9.2405    0.0000 O.2     1  UNL1       -0.2443
      6 C          13.2312   -7.9990    0.0000 C.ar    1  UNL1        0.1327
      7 C          13.9380   -7.5883    0.0000 C.ar    1  UNL1        0.2951
      8 O          13.9380   -6.7615    0.0000 O.2     1  UNL1       -0.2641
      9 C          13.9420  -10.0702    0.0000 C.3     1  UNL1        0.1373
     10 C          14.6568  -10.4821    0.0000 C.ar    1  UNL1        0.0005
     11 C          14.6524  -11.3050    0.0000 C.ar    1  UNL1       -0.0027
     12 C          15.3663  -11.7169    0.0000 C.ar    1  UNL1       -0.0045
     13 C          16.0816  -11.3038    0.0000 C.ar    1  UNL1       -0.0222
     14 C          16.0784  -10.4744    0.0000 C.ar    1  UNL1       -0.0045
     15 C          15.3637  -10.0663    0.0000 C.ar    1  UNL1       -0.0027
     16 C          16.7970  -11.7149    0.0000 C.3     1  UNL1        0.0264
     17 C          16.7950  -12.5321    0.0000 C.3     1  UNL1        0.0052
     18 C          17.5054  -12.9400    0.0000 C.3     1  UNL1        0.0121
     19 C          17.5074  -13.7651    0.0000 C.3     1  UNL1        0.1141
     20 C          18.2229  -14.1759    0.0000 C.2     1  UNL1        0.3649
     21 O          18.2268  -15.0022    0.0000 O.co2   1  UNL1       -0.2457
     22 O          18.9384  -13.7630    0.0000 O.co2   1  UNL1       -0.2457
     23 CL         12.5161   -7.5875    0.0000 Cl      1  UNL1       -0.0756
@<TRIPOS>BOND
     1     2     4   ar
     2    11    12   ar
     3     2     5    2
     4    12    13   ar
     5     3     6   ar
     6    13    14   ar
     7     4     7   ar
     8    14    15   ar
     9    15    10   ar
    10     7     8    2
    11    13    16    1
    12     6     7   ar
    13    16    17    1
    14    17    18    1
    15     1     9    1
    16    18    19    1
    17     1     2   ar
    18    19    20    1
    19     9    10    1
    20     1     3   ar
    21    20    21   ar
    22    20    22   ar
    23    10    11   ar
    24     6    23    1
