@<TRIPOS>MOLECULE
*****
 59 63 0 0 0
SMALL
GASTEIGER

@<TRIPOS>ATOM
      1 N          -3.4458   -4.9375    0.0000 N.ar    1  UNL1       -0.2693
      2 N          11.2042   -1.8083    0.0000 N.ar    1  UNL1       -0.2559
      3 C          -2.9208   -6.1708    0.0000 C.3     1  UNL1        0.2409
      4 C          11.8917   -1.4333    0.0000 C.ar    1  UNL1        0.3545
      5 P           3.8417   -4.9083    0.0000 P.3     1  UNL1        0.2237
      6 P           5.4417   -4.9083    0.0000 P.3     1  UNL1        0.2237
      7 P           2.2292   -4.9083    0.0000 P.3     1  UNL1        0.2237
      8 P           6.8792   -4.4583    0.0000 P.3     1  UNL1        0.2237
      9 C          -4.1708   -4.6875    0.0000 C.ar    1  UNL1        0.1692
     10 N          11.8917   -0.6458    0.0000 N.ar    1  UNL1       -0.1533
     11 C          11.2292   -4.3583    0.0000 C.3     1  UNL1        0.2107
     12 C          -4.1792   -3.7875    0.0000 C.ar    1  UNL1        0.1518
     13 N          -3.4708   -3.5250    0.0000 N.ar    1  UNL1       -0.2193
     14 C          -2.3833   -5.3208    0.0000 C.3     1  UNL1        0.2337
     15 C          10.5292   -1.4083    0.0000 C.ar    1  UNL1        0.0824
     16 C          -2.9583   -4.2125    0.0000 C.ar    1  UNL1        0.1816
     17 O           6.1458   -4.6958    0.0000 O.3     1  UNL1       -0.2699
     18 O           3.0292   -4.9083    0.0000 O.3     1  UNL1       -0.2699
     19 O           4.6208   -4.9083    0.0000 O.3     1  UNL1       -0.2699
     20 O          -1.8208   -6.6208    0.0000 O.3     1  UNL1       -0.3306
     21 C          10.5292   -0.6458    0.0000 C.ar    1  UNL1        0.0534
     22 C          11.2042   -0.2583    0.0000 C.ar    1  UNL1        0.2804
     23 P           0.6333   -4.9083    0.0000 P.3     1  UNL1        0.2189
     24 P           8.0417   -3.6583    0.0000 P.3     1  UNL1        0.2189
     25 O           7.4458   -4.0708    0.0000 O.3     1  UNL1       -0.2701
     26 O           1.4417   -4.9083    0.0000 O.3     1  UNL1       -0.2701
     27 C          -0.8583   -6.1583    0.0000 C.3     1  UNL1        0.1801
     28 O          10.1292   -3.9083    0.0000 O.3     1  UNL1       -0.3326
     29 C          -1.3792   -5.3208    0.0000 C.3     1  UNL1        0.2161
     30 C          10.6917   -5.2083    0.0000 C.3     1  UNL1        0.0895
     31 C          -4.8792   -3.3750    0.0000 C.ar    1  UNL1        0.1919
     32 C           9.1583   -4.3708    0.0000 C.3     1  UNL1        0.1775
     33 N          -4.8917   -5.1250    0.0000 N.ar    1  UNL1       -0.2048
     34 N          -5.6417   -3.8250    0.0000 N.ar    1  UNL1       -0.2040
     35 C           9.6833   -5.2083    0.0000 C.3     1  UNL1        0.1859
     36 O           2.2292   -5.7083    0.0000 O.3     1  UNL1       -0.4369
     37 O           3.8417   -5.7083    0.0000 O.3     1  UNL1       -0.4369
     38 O           7.1208   -5.1833    0.0000 O.3     1  UNL1       -0.4369
     39 O           5.4583   -5.7208    0.0000 O.3     1  UNL1       -0.4369
     40 C          -0.8583   -5.3333    0.0000 C.3     1  UNL1        0.1813
     41 O           2.2292   -4.1083    0.0000 O.2     1  UNL1       -0.5168
     42 O           3.8417   -4.1083    0.0000 O.2     1  UNL1       -0.5168
     43 O           5.4333   -4.0833    0.0000 O.2     1  UNL1       -0.5168
     44 O           6.6583   -3.6583    0.0000 O.2     1  UNL1       -0.5168
     45 C           9.1583   -3.5458    0.0000 C.3     1  UNL1        0.1812
     46 C          -5.6417   -4.7000    0.0000 C.ar    1  UNL1        0.2016
     47 O          12.5542   -1.8333    0.0000 O.2     1  UNL1       -0.2443
     48 O          -0.1458   -4.9083    0.0000 O.3     1  UNL1       -0.3112
     49 O           8.4417   -3.1333    0.0000 O.3     1  UNL1       -0.3112
     50 O           0.6333   -5.7083    0.0000 O.3     1  UNL1       -0.4371
     51 O           8.4667   -4.2333    0.0000 O.3     1  UNL1       -0.4371
     52 O           0.6333   -4.1083    0.0000 O.2     1  UNL1       -0.5170
     53 O           7.6208   -2.9417    0.0000 O.2     1  UNL1       -0.5170
     54 O          11.2042    0.4917    0.0000 O.2     1  UNL1       -0.2654
     55 O          -2.6292   -4.3375    0.0000 O.3     1  UNL1       -0.2155
     56 N          -4.8792   -2.5625    0.0000 N.pl3   1  UNL1       -0.1054
     57 O          -0.9417   -4.5292    0.0000 O.3     1  UNL1       -0.2175
     58 C           9.8708   -0.2583    0.0000 C.3     1  UNL1        0.0377
     59 O           9.4083   -5.9833    0.0000 O.3     1  UNL1       -0.2203
@<TRIPOS>BOND
     1    11     2    1
     2     3     1    1
     3     4     2   ar
     4     5    18    1
     5     6    19    1
     6     7    26    1
     7     8    17    1
     8     9     1   ar
     9    10     4   ar
    10    11    28    1
    11    12     9   ar
    12    13    16   ar
    13    14     3    1
    14    15     2   ar
    15    16     1   ar
    16    17     6    1
    17    18     7    1
    18    19     5    1
    19    20     3    1
    20    21    15   ar
    21    22    21   ar
    22    23    48    1
    23    24    25    1
    24    25     8    1
    25    26    23    1
    26    27    20    1
    27    32    28    1
    28    14    29    1
    29    35    30    1
    30    31    12   ar
    31    32    45    1
    32    33     9   ar
    33    34    46   ar
    34    32    35    1
    35    36     7    1
    36    37     5    1
    37    38     8    1
    38    39     6    1
    39    27    40    1
    40    41     7    2
    41    42     5    2
    42    43     6    2
    43    44     8    2
    44    45    49    1
    45    46    33   ar
    46    47     4    2
    47    48    40    1
    48    49    24    1
    49    50    23    1
    50    51    24    1
    51    52    23    2
    52    53    24    2
    53    54    22    2
    54    14    55    1
    55    56    31    1
    56    29    57    1
    57    58    21    1
    58    35    59    1
    59    12    13   ar
    60    29    27    1
    61    31    34   ar
    62    30    11    1
    63    10    22   ar
