@<TRIPOS>MOLECULE
*****
 32 35 0 0 0
SMALL
GASTEIGER

@<TRIPOS>ATOM
      1 N           4.2381  -19.5383    0.0000 N.ar    1  UNL1       -0.2559
      2 C           4.6415  -20.2594    0.0000 C.ar    1  UNL1        0.3545
      3 N           5.4631  -20.2705    0.0000 N.ar    1  UNL1       -0.1533
      4 C           5.8875  -19.5623    0.0000 C.ar    1  UNL1        0.2804
      5 C           5.4841  -18.8413    0.0000 C.ar    1  UNL1        0.0534
      6 C           4.6563  -18.8284    0.0000 C.ar    1  UNL1        0.0824
      7 O           4.2194  -20.9682    0.0000 O.2     1  UNL1       -0.2443
      8 O           6.7124  -19.5746    0.0000 O.2     1  UNL1       -0.2654
      9 C           5.9069  -18.1329    0.0000 C.3     1  UNL1        0.0377
     10 O           1.4565  -20.3667    0.0000 O.3     1  UNL1       -0.2203
     11 C           2.1358  -19.8983    0.0000 C.3     1  UNL1        0.1852
     12 C           2.9121  -20.1731    0.0000 C.3     1  UNL1        0.0894
     13 C           3.4134  -19.5179    0.0000 C.3     1  UNL1        0.2107
     14 O           2.9451  -18.8386    0.0000 O.3     1  UNL1       -0.3333
     15 C           2.1545  -19.0741    0.0000 C.3     1  UNL1        0.1691
     16 C           1.4375  -18.6583    0.0000 C.3     1  UNL1        0.1462
     17 N           0.7222  -19.0695    0.0000 N.am    1  UNL1       -0.2138
     18 C           0.0086  -18.6556    0.0000 C.2     1  UNL1        0.1745
     19 N          -0.7067  -19.0667    0.0000 N.am    1  UNL1       -0.1906
     20 S           0.0101  -17.8306    0.0000 S.2     1  UNL1       -0.0152
     21 C          -1.4204  -18.6529    0.0000 C.ar    1  UNL1        0.0725
     22 C          -1.4156  -17.8297    0.0000 C.ar    1  UNL1        0.0178
     23 C          -2.1284  -17.4159    0.0000 C.ar    1  UNL1        0.0159
     24 C          -2.8447  -17.8270    0.0000 C.ar    1  UNL1        0.0481
     25 C          -2.8436  -18.6563    0.0000 C.ar    1  UNL1        0.0159
     26 C          -2.1302  -19.0664    0.0000 C.ar    1  UNL1        0.0178
     27 N          -3.5589  -17.4141    0.0000 N.pl3   1  UNL1       -0.3028
     28 C          -3.5570  -16.5900    0.0000 C.3     1  UNL1        0.1231
     29 C          -4.2672  -16.1771    0.0000 C.3     1  UNL1        0.1636
     30 O          -4.9843  -16.5857    0.0000 O.3     1  UNL1       -0.3501
     31 C          -4.9868  -17.4117    0.0000 C.3     1  UNL1        0.1636
     32 C          -4.2721  -17.8291    0.0000 C.3     1  UNL1        0.1231
@<TRIPOS>BOND
     1    15    16    1
     2     4     8    2
     3    16    17    1
     4    13     1    1
     5     1     6   ar
     6    17    18    1
     7     5     9    1
     8    18    19    1
     9     2     3   ar
    10    18    20    2
    11     3     4   ar
    12    19    21    1
    13    11    10    1
    14    21    22   ar
    15    11    12    1
    16    22    23   ar
    17     4     5   ar
    18    23    24   ar
    19     5     6   ar
    20    24    25   ar
    21     1     2   ar
    22    25    26   ar
    23    26    21   ar
    24     2     7    2
    25    24    27    1
    26    27    28    1
    27    13    12    1
    28    13    14    1
    29    15    14    1
    30    11    15    1
    31    27    32    1
    32    28    29    1
    33    29    30    1
    34    30    31    1
    35    31    32    1
