@<TRIPOS>MOLECULE
CHEMBL131395
   66    70     0     0     0
SMALL
USER_CHARGES

@<TRIPOS>ATOM
      1 C1         -0.6142    0.3475   -7.7748 C.3       1 <0>        -0.1226
      2 C2         -0.4298   -0.7324   -6.7399 C.ar      1 <0>        -0.0371
      3 C3         -0.5985   -2.0595   -7.0882 C.ar      1 <0>        -0.1432
      4 C4         -0.4294   -3.0500   -6.1389 C.ar      1 <0>        -0.0196
      5 C5         -0.0912   -2.7135   -4.8415 C.ar      1 <0>        -0.6650
      6 C6          0.0783   -1.3865   -4.4934 C.ar      1 <0>        -0.0208
      7 C7         -0.0866   -0.3962   -5.4437 C.ar      1 <0>        -0.1440
      8 S1          0.1231   -3.9761   -3.6313 S.o2      1 <0>         2.4811
      9 O1         -0.1553   -3.3406   -2.3911 O.2       1 <0>        -0.9369
     10 O2         -0.6793   -5.0562   -4.0880 O.2       1 <0>        -0.9331
     11 C8          1.8797   -4.4190   -3.7258 C.3       1 <0>        -0.5354
     12 C9          2.1791   -5.5029   -2.7225 C.ar      1 <0>        -0.1006
     13 C10         2.5651   -5.1682   -1.4378 C.ar      1 <0>        -0.1266
     14 C11         2.8397   -6.1622   -0.5176 C.ar      1 <0>        -0.1179
     15 C12         2.7280   -7.4913   -0.8817 C.ar      1 <0>        -0.0679
     16 C13         2.3413   -7.8259   -2.1657 C.ar      1 <0>         0.0328
     17 C14         2.0624   -6.8315   -3.0850 C.ar      1 <0>        -0.0988
     18 C15         2.2200   -9.2746   -2.5627 C.3       1 <0>         0.0901
     19 C16         3.5899   -9.9014   -2.6007 C.2       1 <0>        -0.4690
     20 C17         4.7255   -9.1095   -2.6246 C.2       1 <0>         0.3375
     21 C18         5.9839   -9.7409   -2.6699 C.2       1 <0>        -0.2214
     22 C19         6.0613  -11.0894   -2.6914 C.2       1 <0>         0.0975
     23 O3          4.9610  -11.8480   -2.6392 O.3       1 <0>        -0.2927
     24 C20         3.7351  -11.2940   -2.6066 C.2       1 <0>         0.4957
     25 O4          2.7461  -12.0081   -2.5868 O.2       1 <0>        -0.5421
     26 C21         7.4346  -11.6986   -2.7939 C.3       1 <0>        -0.0646
     27 C22         8.1055  -11.8323   -1.4641 C.3       1 <0>        -0.1136
     28 C23         8.7306  -10.5917   -0.8579 C.3       1 <0>        -0.1157
     29 C24         7.6393   -9.6511   -0.3166 C.3       1 <0>        -0.1221
     30 C25         7.5456   -8.4340   -1.2752 C.3       1 <0>        -0.1072
     31 C26         7.2589   -8.9418   -2.6870 C.3       1 <0>        -0.0548
     32 O5          4.6286   -7.7593   -2.6053 O.3       1 <0>        -0.6338
     33 C27         1.3500  -10.0118   -1.5427 C.3       1 <0>        -0.1047
     34 C28         0.1184  -10.7519   -2.0685 C.3       1 <0>        -0.1590
     35 C29        -0.0496   -9.4549   -1.2744 C.3       1 <0>        -0.2005
     36 H1          0.3369    0.5416   -8.2707 H         1 <0>         0.0777
     37 H2         -1.3487    0.0228   -8.5118 H         1 <0>         0.0714
     38 H3         -0.9640    1.2591   -7.2903 H         1 <0>         0.0711
     39 H4         -0.8626   -2.3224   -8.1019 H         1 <0>         0.1319
     40 H5         -0.5618   -4.0868   -6.4109 H         1 <0>         0.1430
     41 H6          0.3421   -1.1236   -3.4797 H         1 <0>         0.1420
     42 H7          0.0494    0.6403   -5.1727 H         1 <0>         0.1313
     43 H8          2.1103   -4.7785   -4.7287 H         1 <0>         0.1368
     44 H9          2.4880   -3.5418   -3.5055 H         1 <0>         0.1355
     45 H10         2.6523   -4.1299   -1.1534 H         1 <0>         0.1100
     46 H11         3.1419   -5.9007    0.4857 H         1 <0>         0.1085
     47 H12         2.9433   -8.2680   -0.1629 H         1 <0>         0.1056
     48 H13         1.7566   -7.0930   -4.0872 H         1 <0>         0.1089
     49 H14         1.7613   -9.3439   -3.5491 H         1 <0>         0.0499
     50 H15         7.3487  -12.6867   -3.2460 H         1 <0>         0.0764
     51 H16         8.0510  -11.0713   -3.4378 H         1 <0>         0.0922
     52 H17         7.3687  -12.2130   -0.7568 H         1 <0>         0.0600
     53 H18         8.8875  -12.5855   -1.5605 H         1 <0>         0.0602
     54 H19         9.3924  -10.8831   -0.0423 H         1 <0>         0.0584
     55 H20         9.3100  -10.0707   -1.6201 H         1 <0>         0.0642
     56 H21         6.6829  -10.1731   -0.2879 H         1 <0>         0.0659
     57 H22         7.9065   -9.3130    0.6846 H         1 <0>         0.0536
     58 H23         6.7387   -7.7760   -0.9526 H         1 <0>         0.0717
     59 H24         8.4896   -7.8891   -1.2674 H         1 <0>         0.0517
     60 H25         8.0814   -9.5743   -3.0212 H         1 <0>         0.0626
     61 H26         7.1496   -8.0948   -3.3642 H         1 <0>         0.0664
     62 H27         1.8843  -10.4563   -0.7030 H         1 <0>         0.0917
     63 H28        -0.0720  -10.7136   -3.1411 H         1 <0>         0.0845
     64 H29        -0.1577  -11.6837   -1.5748 H         1 <0>         0.0821
     65 H30        -0.4363   -9.5334   -0.2583 H         1 <0>         0.0824
     66 H31        -0.3505   -8.5634   -1.8246 H         1 <0>         0.0883
@<TRIPOS>BOND
     1    1    2 1
     2    1   36 1
     3    1   37 1
     4    1   38 1
     5    2    7 ar
     6    2    3 ar
     7    3    4 ar
     8    3   39 1
     9    4    5 ar
    10    4   40 1
    11    5    6 ar
    12    5    8 1
    13    6    7 ar
    14    6   41 1
    15    7   42 1
    16    8    9 2
    17    8   10 2
    18    8   11 1
    19   11   12 1
    20   11   43 1
    21   11   44 1
    22   12   17 ar
    23   12   13 ar
    24   13   14 ar
    25   13   45 1
    26   14   15 ar
    27   14   46 1
    28   15   16 ar
    29   15   47 1
    30   16   17 ar
    31   16   18 1
    32   17   48 1
    33   18   19 1
    34   18   33 1
    35   18   49 1
    36   19   24 1
    37   19   20 2
    38   20   21 1
    39   20   32 1
    40   21   31 1
    41   21   22 2
    42   22   23 1
    43   22   26 1
    44   23   24 1
    45   24   25 2
    46   26   27 1
    47   26   50 1
    48   26   51 1
    49   27   28 1
    50   27   52 1
    51   27   53 1
    52   28   29 1
    53   28   54 1
    54   28   55 1
    55   29   30 1
    56   29   56 1
    57   29   57 1
    58   30   31 1
    59   30   58 1
    60   30   59 1
    61   31   60 1
    62   31   61 1
    63   33   35 1
    64   33   34 1
    65   33   62 1
    66   34   35 1
    67   34   63 1
    68   34   64 1
    69   35   65 1
    70   35   66 1
