@<TRIPOS>MOLECULE
CHEMBL143630
   66    69     0     0     0
SMALL
USER_CHARGES

@<TRIPOS>ATOM
      1 C1         -0.5861    1.0690   -0.2707 C.3       1 <0>        -0.1539
      2 C2         -0.4262   -0.4443   -0.1120 C.3       1 <0>        -0.1288
      3 C3          0.4584   -0.7393    1.1010 C.3       1 <0>        -0.1090
      4 C4          0.6182   -2.2526    1.2597 C.3       1 <0>         0.1445
      5 C5          1.2681   -2.8332   -0.0018 C.3       1 <0>        -0.2032
      6 C6          1.2606   -4.3446    0.1091 C.2       1 <0>         0.3653
      7 O1          2.2641   -4.9930   -0.0668 O.2       1 <0>        -0.4148
      8 C7         -0.0602   -5.0094    0.4510 C.3       1 <0>        -0.1753
      9 C8         -0.6928   -4.1951    1.5624 C.2       1 <0>         0.5022
     10 O2         -0.6677   -2.8510    1.4504 O.3       1 <0>        -0.3518
     11 O3         -1.2030   -4.7323    2.5168 O.2       1 <0>        -0.4251
     12 C9         -0.9740   -5.0160   -0.7761 C.3       1 <0>         0.0130
     13 C10        -2.2816   -5.6780   -0.4252 C.2       1 <0>        -0.1508
     14 C11        -3.4168   -5.0022   -0.5336 C.2       1 <0>        -0.0931
     15 C12        -4.6993   -5.6515   -0.1894 C.ar      1 <0>        -0.0594
     16 C13        -4.7178   -6.9739    0.2555 C.ar      1 <0>        -0.1100
     17 C14        -5.9183   -7.5742    0.5752 C.ar      1 <0>        -0.1187
     18 C15        -7.1019   -6.8681    0.4550 C.ar      1 <0>        -0.1172
     19 C16        -7.0903   -5.5569    0.0140 C.ar      1 <0>        -0.1197
     20 C17        -5.8960   -4.9429   -0.3025 C.ar      1 <0>        -0.1058
     21 C18        -0.3092   -5.7780   -1.8935 C.ar      1 <0>        -0.0878
     22 C19         0.0208   -7.1093   -1.7215 C.ar      1 <0>        -0.1026
     23 C20         0.6306   -7.8082   -2.7464 C.ar      1 <0>        -0.1140
     24 C21         0.9101   -7.1760   -3.9435 C.ar      1 <0>        -0.1145
     25 C22         0.5793   -5.8449   -4.1158 C.ar      1 <0>        -0.1161
     26 C23        -0.0344   -5.1471   -3.0924 C.ar      1 <0>        -0.1111
     27 C24         1.5034   -2.5479    2.4722 C.3       1 <0>        -0.1452
     28 C25         0.8628   -1.9535    3.7281 C.3       1 <0>        -0.0803
     29 C26         1.6658   -2.3536    4.9390 C.ar      1 <0>        -0.0852
     30 C27         1.3646   -3.5225    5.6126 C.ar      1 <0>        -0.1157
     31 C28         2.1011   -3.8896    6.7233 C.ar      1 <0>        -0.1172
     32 C29         3.1391   -3.0880    7.1601 C.ar      1 <0>        -0.1231
     33 C30         3.4409   -1.9195    6.4859 C.ar      1 <0>        -0.1187
     34 C31         2.7072   -1.5547    5.3727 C.ar      1 <0>        -0.1172
     35 H1          0.3934    1.5246   -0.4160 H         1 <0>         0.0547
     36 H2         -1.2163    1.2792   -1.1349 H         1 <0>         0.0565
     37 H3         -1.0493    1.4814    0.6256 H         1 <0>         0.0562
     38 H4         -1.4057   -0.8999    0.0332 H         1 <0>         0.0734
     39 H5          0.0370   -0.8567   -1.0084 H         1 <0>         0.0640
     40 H6          1.4379   -0.2837    0.9557 H         1 <0>         0.0908
     41 H7         -0.0048   -0.3269    1.9973 H         1 <0>         0.0874
     42 H8          0.7013   -2.5268   -0.8810 H         1 <0>         0.1224
     43 H9          2.2947   -2.4762   -0.0834 H         1 <0>         0.1171
     44 H10        -1.1602   -3.9908   -1.0960 H         1 <0>         0.0981
     45 H11        -2.2937   -6.7031   -0.0853 H         1 <0>         0.1227
     46 H12        -3.4047   -3.9771   -0.8735 H         1 <0>         0.1214
     47 H13        -3.7946   -7.5264    0.3491 H         1 <0>         0.1231
     48 H14        -5.9340   -8.5977    0.9196 H         1 <0>         0.1236
     49 H15        -8.0389   -7.3427    0.7061 H         1 <0>         0.1226
     50 H16        -8.0178   -5.0113   -0.0783 H         1 <0>         0.1241
     51 H17        -5.8878   -3.9175   -0.6417 H         1 <0>         0.1241
     52 H18        -0.1976   -7.6033   -0.7862 H         1 <0>         0.1207
     53 H19         0.8891   -8.8482   -2.6117 H         1 <0>         0.1243
     54 H20         1.3872   -7.7218   -4.7440 H         1 <0>         0.1235
     55 H21         0.7979   -5.3508   -5.0510 H         1 <0>         0.1245
     56 H22        -0.2963   -4.1082   -3.2284 H         1 <0>         0.1220
     57 H23         1.6067   -3.6263    2.5926 H         1 <0>         0.0655
     58 H24         2.4870   -2.1033    2.3208 H         1 <0>         0.0926
     59 H25         0.8447   -0.8667    3.6471 H         1 <0>         0.0815
     60 H26        -0.1561   -2.3275    3.8280 H         1 <0>         0.0833
     61 H27         0.5536   -4.1488    5.2714 H         1 <0>         0.1212
     62 H28         1.8653   -4.8025    7.2501 H         1 <0>         0.1219
     63 H29         3.7141   -3.3744    8.0283 H         1 <0>         0.1214
     64 H30         4.2517   -1.2931    6.8274 H         1 <0>         0.1220
     65 H31         2.9453   -0.6437    4.8437 H         1 <0>         0.1213
     66 H32         0.1144   -6.0301    0.7911 H         1 <0>         0.1325
@<TRIPOS>BOND
     1    1    2 1
     2    1   35 1
     3    1   36 1
     4    1   37 1
     5    2    3 1
     6    2   38 1
     7    2   39 1
     8    3    4 1
     9    3   40 1
    10    3   41 1
    11    4   10 1
    12    4    5 1
    13    4   27 1
    14    5    6 1
    15    5   42 1
    16    5   43 1
    17    6    7 2
    18    6    8 1
    19    8    9 1
    20    8   12 1
    21    8   66 1
    22    9   10 1
    23    9   11 2
    24   12   13 1
    25   12   21 1
    26   12   44 1
    27   13   14 2
    28   13   45 1
    29   14   15 1
    30   14   46 1
    31   15   20 ar
    32   15   16 ar
    33   16   17 ar
    34   16   47 1
    35   17   18 ar
    36   17   48 1
    37   18   19 ar
    38   18   49 1
    39   19   20 ar
    40   19   50 1
    41   20   51 1
    42   21   26 ar
    43   21   22 ar
    44   22   23 ar
    45   22   52 1
    46   23   24 ar
    47   23   53 1
    48   24   25 ar
    49   24   54 1
    50   25   26 ar
    51   25   55 1
    52   26   56 1
    53   27   28 1
    54   27   57 1
    55   27   58 1
    56   28   29 1
    57   28   59 1
    58   28   60 1
    59   29   34 ar
    60   29   30 ar
    61   30   31 ar
    62   30   61 1
    63   31   32 ar
    64   31   62 1
    65   32   33 ar
    66   32   63 1
    67   33   34 ar
    68   33   64 1
    69   34   65 1
