@<TRIPOS>MOLECULE
CHEMBL423628
   69    72     0     0     0
SMALL
USER_CHARGES

@<TRIPOS>ATOM
      1 C1          0.2234   -0.4323    2.1939 C.3       1 <0>        -0.1384
      2 C2          0.6215   -0.5595    0.7221 C.3       1 <0>        -0.0558
      3 C3          1.9993    0.0712    0.5102 C.3       1 <0>        -0.1378
      4 C4          0.6717   -2.0162    0.3394 C.ar      1 <0>        -0.0814
      5 C5          1.5305   -2.8746    0.9971 C.ar      1 <0>        -0.1038
      6 C6          1.5772   -4.2116    0.6466 C.ar      1 <0>        -0.1530
      7 C7          0.7645   -4.6943   -0.3635 C.ar      1 <0>        -0.1123
      8 C8         -0.0969   -3.8425   -1.0253 C.ar      1 <0>        -0.1142
      9 C9         -0.1506   -2.4987   -0.6721 C.ar      1 <0>        -0.0737
     10 S1         -1.2528   -1.4087   -1.5097 S.3       1 <0>         0.0540
     11 C10        -1.9292   -2.3968   -2.8023 C.2       1 <0>        -0.5477
     12 C11        -3.2656   -2.7240   -2.7881 C.2       1 <0>         0.4991
     13 O1         -3.7951   -3.4779   -3.7738 O.3       1 <0>        -0.3371
     14 C12        -3.1883   -3.3681   -5.0658 C.3       1 <0>         0.1805
     15 C13        -1.6966   -3.6993   -4.9374 C.3       1 <0>        -0.1791
     16 C14        -1.1072   -2.8417   -3.8432 C.2       1 <0>         0.4039
     17 O2          0.0722   -2.5440   -3.8644 O.2       1 <0>        -0.5283
     18 C15        -3.3537   -1.9406   -5.5910 C.3       1 <0>        -0.1414
     19 C16        -4.8429   -1.6063   -5.6988 C.3       1 <0>        -0.1166
     20 C17        -5.0083   -0.1788   -6.2240 C.3       1 <0>        -0.1018
     21 C18        -6.4975    0.1555   -6.3318 C.3       1 <0>        -0.1381
     22 C19        -6.6605    1.5615   -6.8492 C.2       1 <0>         0.5132
     23 O3         -5.6819    2.2303   -7.1064 O.2       1 <0>        -0.5148
     24 N1         -7.8936    2.0758   -7.0260 N.am      1 <0>        -0.6805
     25 C20        -8.0481    3.3387   -7.6084 C.ar      1 <0>         0.1502
     26 C21        -9.0862    4.1685   -7.2055 C.ar      1 <0>        -0.1492
     27 C22        -9.2360    5.4144   -7.7823 C.ar      1 <0>        -0.1016
     28 C23        -8.3536    5.8359   -8.7600 C.ar      1 <0>        -0.1398
     29 C24        -7.3192    5.0118   -9.1638 C.ar      1 <0>        -0.1008
     30 C25        -7.1603    3.7672   -8.5865 C.ar      1 <0>        -0.1225
     31 C26        -3.8418   -4.3387   -6.0154 C.ar      1 <0>        -0.0634
     32 C27        -3.9099   -4.0458   -7.3647 C.ar      1 <0>        -0.1074
     33 C28        -4.5094   -4.9361   -8.2358 C.ar      1 <0>        -0.1242
     34 C29        -5.0404   -6.1195   -7.7578 C.ar      1 <0>        -0.1233
     35 C30        -4.9715   -6.4128   -6.4086 C.ar      1 <0>        -0.1229
     36 C31        -4.3682   -5.5244   -5.5381 C.ar      1 <0>        -0.0930
     37 O4         -4.0515   -2.2886   -1.7816 O.3       1 <0>        -0.6159
     38 H1          0.1871    0.6213    2.4707 H         1 <0>         0.0527
     39 H2         -0.7582   -0.8816    2.3449 H         1 <0>         0.0563
     40 H3          0.9575   -0.9460    2.8146 H         1 <0>         0.0516
     41 H4         -0.1126   -0.0458    0.1014 H         1 <0>         0.0838
     42 H5          2.7334   -0.4425    1.1309 H         1 <0>         0.0513
     43 H6          2.2829   -0.0194   -0.5384 H         1 <0>         0.0569
     44 H7          1.9630    1.1249    0.7870 H         1 <0>         0.0523
     45 H8          2.1667   -2.5013    1.7859 H         1 <0>         0.1125
     46 H9          2.2501   -4.8805    1.1625 H         1 <0>         0.1095
     47 H10         0.8043   -5.7389   -0.6349 H         1 <0>         0.1091
     48 H11        -0.7311   -4.2200   -1.8137 H         1 <0>         0.1156
     49 H12        -1.5761   -4.7532   -4.6863 H         1 <0>         0.0895
     50 H13        -1.1919   -3.4851   -5.8795 H         1 <0>         0.0906
     51 H14        -2.8735   -1.2431   -4.9049 H         1 <0>         0.0846
     52 H15        -2.8910   -1.8595   -6.5746 H         1 <0>         0.0756
     53 H16        -5.3231   -2.3039   -6.3849 H         1 <0>         0.0651
     54 H17        -5.3056   -1.6875   -4.7152 H         1 <0>         0.0737
     55 H18        -4.5281    0.5187   -5.5379 H         1 <0>         0.0719
     56 H19        -4.5456   -0.0977   -7.2076 H         1 <0>         0.0673
     57 H20        -6.9777   -0.5421   -7.0180 H         1 <0>         0.0966
     58 H21        -6.9602    0.0743   -5.3482 H         1 <0>         0.0990
     59 H22        -8.6741    1.5704   -6.7496 H         1 <0>         0.4113
     60 H23        -9.7758    3.8397   -6.4421 H         1 <0>         0.1246
     61 H24       -10.0433    6.0601   -7.4696 H         1 <0>         0.1245
     62 H25        -8.4729    6.8106   -9.2096 H         1 <0>         0.1215
     63 H26        -6.6319    5.3437   -9.9279 H         1 <0>         0.1245
     64 H27        -6.3491    3.1261   -8.8986 H         1 <0>         0.1340
     65 H28        -3.4950   -3.1213   -7.7382 H         1 <0>         0.1261
     66 H29        -4.5632   -4.7070   -9.2899 H         1 <0>         0.1204
     67 H30        -5.5094   -6.8147   -8.4382 H         1 <0>         0.1178
     68 H31        -5.3867   -7.3372   -6.0351 H         1 <0>         0.1203
     69 H32        -4.3111   -5.7553   -4.4846 H         1 <0>         0.1286
@<TRIPOS>BOND
     1    1    2 1
     2    1   38 1
     3    1   39 1
     4    1   40 1
     5    2    3 1
     6    2    4 1
     7    2   41 1
     8    3   42 1
     9    3   43 1
    10    3   44 1
    11    4    9 ar
    12    4    5 ar
    13    5    6 ar
    14    5   45 1
    15    6    7 ar
    16    6   46 1
    17    7    8 ar
    18    7   47 1
    19    8    9 ar
    20    8   48 1
    21    9   10 1
    22   10   11 1
    23   11   16 1
    24   11   12 2
    25   12   13 1
    26   12   37 1
    27   13   14 1
    28   14   15 1
    29   14   18 1
    30   14   31 1
    31   15   16 1
    32   15   49 1
    33   15   50 1
    34   16   17 2
    35   18   19 1
    36   18   51 1
    37   18   52 1
    38   19   20 1
    39   19   53 1
    40   19   54 1
    41   20   21 1
    42   20   55 1
    43   20   56 1
    44   21   22 1
    45   21   57 1
    46   21   58 1
    47   22   23 2
    48   22   24 am
    49   24   25 1
    50   24   59 1
    51   25   30 ar
    52   25   26 ar
    53   26   27 ar
    54   26   60 1
    55   27   28 ar
    56   27   61 1
    57   28   29 ar
    58   28   62 1
    59   29   30 ar
    60   29   63 1
    61   30   64 1
    62   31   36 ar
    63   31   32 ar
    64   32   33 ar
    65   32   65 1
    66   33   34 ar
    67   33   66 1
    68   34   35 ar
    69   34   67 1
    70   35   36 ar
    71   35   68 1
    72   36   69 1
