@<TRIPOS>MOLECULE
CHEMBL38236
   78    81     0     0     0
SMALL
USER_CHARGES

@<TRIPOS>ATOM
      1 C1         -1.1626    1.7944    0.2554 C.3       1 <0>        -0.1101
      2 C2         -1.1788    0.2876    0.2398 C.ar      1 <0>        -0.0992
      3 C3         -0.9422   -0.3929   -0.9377 C.ar      1 <0>        -0.0988
      4 C4         -0.9567   -1.7824   -0.9519 C.ar      1 <0>        -0.0879
      5 C5         -1.2095   -2.4865    0.2198 C.ar      1 <0>        -0.0641
      6 C6         -1.4460   -1.8054    1.3964 C.ar      1 <0>        -0.1123
      7 C7         -1.4261   -0.4163    1.4112 C.ar      1 <0>         0.1017
      8 N1         -1.6604    0.2743    2.6066 N.am      1 <0>        -0.6382
      9 C8         -2.3996   -0.2942    3.5796 C.2       1 <0>         0.5632
     10 O1         -2.7957   -1.4363    3.4531 O.2       1 <0>        -0.5135
     11 C9         -2.7292    0.4727    4.8032 C.ar      1 <0>         0.0835
     12 C10        -3.4889   -0.1226    5.8081 C.ar      1 <0>        -0.1104
     13 C11        -3.7887    0.6074    6.9472 C.ar      1 <0>        -0.0813
     14 C12        -3.3183    1.9080    7.0420 C.ar      1 <0>        -0.1525
     15 C13        -2.5681    2.4364    6.0039 C.ar      1 <0>         0.0983
     16 N2         -2.2937    1.7195    4.9357 N.ar      1 <0>        -0.4608
     17 C14        -1.2259   -3.9933    0.2049 C.3       1 <0>        -0.0210
     18 C15        -1.5253   -4.5140    1.6121 C.3       1 <0>        -0.1366
     19 C16        -2.3074   -4.4821   -0.7606 C.3       1 <0>        -0.1537
     20 C17         0.1385   -4.5137   -0.2518 C.3       1 <0>        -0.1515
     21 S1         -0.6553   -2.6516   -2.4547 S.3       1 <0>         0.0812
     22 C18        -0.5568   -1.3798   -3.6702 C.2       1 <0>        -0.5366
     23 C19        -1.7390   -0.5704   -3.9909 C.2       1 <0>         0.5372
     24 O2         -1.5576    0.5199   -4.7803 O.3       1 <0>        -0.3683
     25 C20        -0.6657    0.3105   -5.8848 C.3       1 <0>         0.1467
     26 C21         0.7177   -0.0546   -5.3436 C.3       1 <0>        -0.1507
     27 C22         0.6046   -1.1396   -4.3077 C.2       1 <0>         0.3346
     28 O3          1.6887   -1.8910   -4.0146 O.3       1 <0>        -0.6489
     29 C23        -1.1914   -0.8303   -6.7584 C.3       1 <0>        -0.1402
     30 C24        -2.5875   -0.4759   -7.2743 C.3       1 <0>        -0.0802
     31 C25        -3.1568   -1.6493   -8.0294 C.ar      1 <0>        -0.0793
     32 C26        -2.9317   -1.7704   -9.3882 C.ar      1 <0>        -0.1039
     33 C27        -3.4528   -2.8448  -10.0828 C.ar      1 <0>        -0.1460
     34 C28        -4.2022   -3.8030   -9.4157 C.ar      1 <0>         0.0909
     35 C29        -4.4263   -3.6794   -8.0522 C.ar      1 <0>        -0.1403
     36 C30        -3.8986   -2.6058   -7.3612 C.ar      1 <0>        -0.0938
     37 O4         -4.7163   -4.8606  -10.0969 O.3       1 <0>        -0.5025
     38 C31        -0.5691    1.5918   -6.7153 C.3       1 <0>        -0.0818
     39 C32         0.0789    2.6954   -5.8767 C.3       1 <0>        -0.1499
     40 C33         0.2821    1.3302   -7.9594 C.3       1 <0>        -0.1501
     41 O5         -2.8398   -0.8650   -3.5651 O.2       1 <0>        -0.5102
     42 H1         -0.1518    2.1448    0.4640 H         1 <0>         0.0658
     43 H2         -1.4847    2.1713   -0.7153 H         1 <0>         0.0679
     44 H3         -1.8397    2.1571    1.0288 H         1 <0>         0.0585
     45 H4         -0.7462    0.1545   -1.8478 H         1 <0>         0.1231
     46 H5         -1.6427   -2.3523    2.3066 H         1 <0>         0.1544
     47 H6         -1.2907    1.1620    2.7343 H         1 <0>         0.4157
     48 H7         -3.8394   -1.1385    5.7006 H         1 <0>         0.1503
     49 H8         -4.3758    0.1731    7.7428 H         1 <0>         0.1426
     50 H9         -3.5348    2.5038    7.9164 H         1 <0>         0.1405
     51 H10        -2.2004    3.4494    6.0743 H         1 <0>         0.1634
     52 H11        -2.4973   -4.1433    1.9374 H         1 <0>         0.0591
     53 H12        -1.5371   -5.6039    1.6013 H         1 <0>         0.0510
     54 H13        -0.7548   -4.1658    2.2999 H         1 <0>         0.0517
     55 H14        -2.0941   -4.1112   -1.7631 H         1 <0>         0.0867
     56 H15        -2.3192   -5.5720   -0.7714 H         1 <0>         0.0507
     57 H16        -3.2794   -4.1114   -0.4353 H         1 <0>         0.0510
     58 H17         0.9090   -4.1654    0.4361 H         1 <0>         0.0503
     59 H18         0.1267   -5.6035   -0.2626 H         1 <0>         0.0523
     60 H19         0.3519   -4.1427   -1.2543 H         1 <0>         0.0848
     61 H20         1.3466   -0.4000   -6.1641 H         1 <0>         0.0856
     62 H21         1.1719    0.8265   -4.8902 H         1 <0>         0.0914
     63 H22        -0.5192   -0.9804   -7.6032 H         1 <0>         0.0785
     64 H23        -1.2435   -1.7454   -6.1684 H         1 <0>         0.0797
     65 H24        -3.2363   -0.2368   -6.4317 H         1 <0>         0.0823
     66 H25        -2.5216    0.3860   -7.9382 H         1 <0>         0.0728
     67 H26        -2.3482   -1.0242   -9.9071 H         1 <0>         0.1241
     68 H27        -3.2773   -2.9386  -11.1443 H         1 <0>         0.1242
     69 H28        -5.0094   -4.4239   -7.5307 H         1 <0>         0.1266
     70 H29        -4.0691   -2.5115   -6.2989 H         1 <0>         0.1310
     71 H30        -4.1299   -5.6287  -10.1316 H         1 <0>         0.3870
     72 H31        -1.5684    1.9049   -7.0179 H         1 <0>         0.0804
     73 H32         1.0782    2.3824   -5.5741 H         1 <0>         0.0595
     74 H33         0.1477    3.6083   -6.4684 H         1 <0>         0.0521
     75 H34        -0.5275    2.8818   -4.9904 H         1 <0>         0.0625
     76 H35        -0.1796    0.5441   -8.5568 H         1 <0>         0.0606
     77 H36         0.3509    2.2431   -8.5511 H         1 <0>         0.0582
     78 H37         1.2813    1.0172   -7.6567 H         1 <0>         0.0609
@<TRIPOS>BOND
     1    1    2 1
     2    1   42 1
     3    1   43 1
     4    1   44 1
     5    2    7 ar
     6    2    3 ar
     7    3    4 ar
     8    3   45 1
     9    4    5 ar
    10    4   21 1
    11    5    6 ar
    12    5   17 1
    13    6    7 ar
    14    6   46 1
    15    7    8 1
    16    8    9 am
    17    8   47 1
    18    9   10 2
    19    9   11 1
    20   11   16 ar
    21   11   12 ar
    22   12   13 ar
    23   12   48 1
    24   13   14 ar
    25   13   49 1
    26   14   15 ar
    27   14   50 1
    28   15   16 ar
    29   15   51 1
    30   17   18 1
    31   17   19 1
    32   17   20 1
    33   18   52 1
    34   18   53 1
    35   18   54 1
    36   19   55 1
    37   19   56 1
    38   19   57 1
    39   20   58 1
    40   20   59 1
    41   20   60 1
    42   21   22 1
    43   22   27 2
    44   22   23 1
    45   23   24 1
    46   23   41 2
    47   24   25 1
    48   25   26 1
    49   25   29 1
    50   25   38 1
    51   26   27 1
    52   26   61 1
    53   26   62 1
    54   27   28 1
    55   29   30 1
    56   29   63 1
    57   29   64 1
    58   30   31 1
    59   30   65 1
    60   30   66 1
    61   31   36 ar
    62   31   32 ar
    63   32   33 ar
    64   32   67 1
    65   33   34 ar
    66   33   68 1
    67   34   35 ar
    68   34   37 1
    69   35   36 ar
    70   35   69 1
    71   36   70 1
    72   37   71 1
    73   38   39 1
    74   38   40 1
    75   38   72 1
    76   39   73 1
    77   39   74 1
    78   39   75 1
    79   40   76 1
    80   40   77 1
    81   40   78 1
