@<TRIPOS>MOLECULE
CHEMBL168270
   74    77     0     0     0
SMALL
USER_CHARGES

@<TRIPOS>ATOM
      1 C1         -1.1935    1.3488    0.1812 C.3       1 <0>        -0.1070
      2 C2         -0.5416   -0.0038    0.0526 C.ar      1 <0>        -0.0881
      3 C3         -0.2637   -0.5201   -1.1975 C.ar      1 <0>        -0.0961
      4 C4          0.3377   -1.7669   -1.3160 C.ar      1 <0>        -0.0873
      5 C5          0.6593   -2.4939   -0.1761 C.ar      1 <0>        -0.0520
      6 C6          0.3813   -1.9771    1.0733 C.ar      1 <0>        -0.1551
      7 C7         -0.2152   -0.7282    1.1914 C.ar      1 <0>         0.1129
      8 N1         -0.4918   -0.2019    2.4588 N.pl3     1 <0>        -1.0466
      9 S1          0.5430   -0.4905    3.7191 S.o2      1 <0>         2.6907
     10 O1          0.0632    0.2684    4.8205 O.2       1 <0>        -0.9621
     11 O2          0.7210   -1.8988    3.7841 O.2       1 <0>        -0.9488
     12 C8          2.1052    0.1948    3.2778 C.ar      1 <0>        -0.6720
     13 C9          3.0320   -0.5764    2.6016 C.ar      1 <0>        -0.0085
     14 C10         4.2576   -0.0388    2.2554 C.ar      1 <0>        -0.1363
     15 C11         4.5562    1.2700    2.5850 C.ar      1 <0>        -0.0614
     16 C12         3.6290    2.0415    3.2604 C.ar      1 <0>        -0.1436
     17 C13         2.4018    1.5052    3.6028 C.ar      1 <0>        -0.0210
     18 C14         1.3112   -3.8466   -0.3041 C.3       1 <0>        -0.0241
     19 C15         1.5571   -4.4282    1.0895 C.3       1 <0>        -0.1407
     20 C16         0.3931   -4.7826   -1.0927 C.3       1 <0>        -0.1522
     21 C17         2.6453   -3.7023   -1.0392 C.3       1 <0>        -0.1552
     22 S2          0.6919   -2.4264   -2.9110 S.3       1 <0>         0.0879
     23 C18         0.2883   -1.1133   -4.0145 C.2       1 <0>        -0.5394
     24 C19         1.0718    0.1283   -4.0041 C.2       1 <0>         0.5372
     25 O3          0.5968    1.1761   -4.7263 O.3       1 <0>        -0.3703
     26 C20         0.0693    0.8192   -6.0121 C.3       1 <0>         0.1367
     27 C21        -1.1136   -0.1310   -5.8173 C.3       1 <0>        -0.1473
     28 C22        -0.7373   -1.2435   -4.8770 C.2       1 <0>         0.3363
     29 O4         -1.4451   -2.3944   -4.8956 O.3       1 <0>        -0.6465
     30 C23         1.1548    0.1235   -6.8360 C.3       1 <0>        -0.1812
     31 C24        -0.4009    2.0797   -6.7407 C.3       1 <0>        -0.0963
     32 C25         0.8023    2.9784   -7.0333 C.3       1 <0>        -0.0844
     33 C26         0.3392    4.2200   -7.7509 C.ar      1 <0>        -0.0804
     34 C27         0.2770    4.2362   -9.1321 C.ar      1 <0>        -0.1024
     35 C28        -0.1468    5.3733   -9.7923 C.ar      1 <0>        -0.1436
     36 C29        -0.5105    6.4994   -9.0683 C.ar      1 <0>         0.0917
     37 C30        -0.4477    6.4805   -7.6826 C.ar      1 <0>        -0.1427
     38 C31        -0.0282    5.3392   -7.0269 C.ar      1 <0>        -0.0995
     39 O5         -0.9273    7.6193   -9.7155 O.3       1 <0>        -0.5020
     40 O6          2.1080    0.2154   -3.3726 O.2       1 <0>        -0.5105
     41 H1         -0.4243    2.1197    0.2297 H         1 <0>         0.0672
     42 H2         -1.8331    1.5276   -0.6831 H         1 <0>         0.0662
     43 H3         -1.7945    1.3776    1.0901 H         1 <0>         0.0578
     44 H4         -0.5142    0.0451   -2.0831 H         1 <0>         0.1244
     45 H5          0.6312   -2.5421    1.9591 H         1 <0>         0.1617
     46 H6         -1.2896    0.3318    2.5988 H         1 <0>         0.4209
     47 H7          2.7987   -1.5990    2.3441 H         1 <0>         0.1406
     48 H8          4.9819   -0.6415    1.7277 H         1 <0>         0.1339
     49 H9          5.5140    1.6898    2.3151 H         1 <0>         0.1299
     50 H10         3.8624    3.0639    3.5182 H         1 <0>         0.1310
     51 H11         1.6760    2.1090    4.1272 H         1 <0>         0.1372
     52 H12         0.6066   -4.5310    1.6132 H         1 <0>         0.0592
     53 H13         2.0286   -5.4065    0.9969 H         1 <0>         0.0543
     54 H14         2.2112   -3.7613    1.6513 H         1 <0>         0.0556
     55 H15         0.2180   -4.3683   -2.0855 H         1 <0>         0.0844
     56 H16         0.8646   -5.7610   -1.1853 H         1 <0>         0.0543
     57 H17        -0.5573   -4.8854   -0.5690 H         1 <0>         0.0527
     58 H18         3.2994   -3.0354   -0.4774 H         1 <0>         0.0505
     59 H19         3.1168   -4.6807   -1.1317 H         1 <0>         0.0530
     60 H20         2.4702   -3.2880   -2.0320 H         1 <0>         0.0876
     61 H21        -1.9578    0.4230   -5.4069 H         1 <0>         0.0859
     62 H22        -1.3977   -0.5558   -6.7801 H         1 <0>         0.0864
     63 H23         1.4842   -0.7765   -6.3167 H         1 <0>         0.0711
     64 H24         0.7526   -0.1470   -7.8123 H         1 <0>         0.0691
     65 H25         2.0008    0.7983   -6.9658 H         1 <0>         0.0661
     66 H26        -0.8816    1.7996   -7.6781 H         1 <0>         0.0806
     67 H27        -1.1123    2.6175   -6.1141 H         1 <0>         0.0740
     68 H28         1.2830    3.2585   -6.0959 H         1 <0>         0.0837
     69 H29         1.5137    2.4406   -7.6599 H         1 <0>         0.0774
     70 H30         0.5603    3.3593   -9.6952 H         1 <0>         0.1267
     71 H31        -0.1945    5.3856  -10.8712 H         1 <0>         0.1258
     72 H32        -0.7303    7.3559   -7.1167 H         1 <0>         0.1261
     73 H33         0.0167    5.3225   -5.9479 H         1 <0>         0.1283
     74 H34        -1.8814    7.6527   -9.8693 H         1 <0>         0.3876
@<TRIPOS>BOND
     1    1    2 1
     2    1   41 1
     3    1   42 1
     4    1   43 1
     5    2    7 ar
     6    2    3 ar
     7    3    4 ar
     8    3   44 1
     9    4    5 ar
    10    4   22 1
    11    5    6 ar
    12    5   18 1
    13    6    7 ar
    14    6   45 1
    15    7    8 1
    16    8    9 1
    17    8   46 1
    18    9   10 2
    19    9   11 2
    20    9   12 1
    21   12   17 ar
    22   12   13 ar
    23   13   14 ar
    24   13   47 1
    25   14   15 ar
    26   14   48 1
    27   15   16 ar
    28   15   49 1
    29   16   17 ar
    30   16   50 1
    31   17   51 1
    32   18   19 1
    33   18   20 1
    34   18   21 1
    35   19   52 1
    36   19   53 1
    37   19   54 1
    38   20   55 1
    39   20   56 1
    40   20   57 1
    41   21   58 1
    42   21   59 1
    43   21   60 1
    44   22   23 1
    45   23   28 2
    46   23   24 1
    47   24   25 1
    48   24   40 2
    49   25   26 1
    50   26   27 1
    51   26   30 1
    52   26   31 1
    53   27   28 1
    54   27   61 1
    55   27   62 1
    56   28   29 1
    57   30   63 1
    58   30   64 1
    59   30   65 1
    60   31   32 1
    61   31   66 1
    62   31   67 1
    63   32   33 1
    64   32   68 1
    65   32   69 1
    66   33   38 ar
    67   33   34 ar
    68   34   35 ar
    69   34   70 1
    70   35   36 ar
    71   35   71 1
    72   36   37 ar
    73   36   39 1
    74   37   38 ar
    75   37   72 1
    76   38   73 1
    77   39   74 1
