@<TRIPOS>MOLECULE
CHEMBL80972
   57    61     0     0     0
SMALL
USER_CHARGES

@<TRIPOS>ATOM
      1 C1          0.7350    0.8630    0.2287 C.3       1 <0>         0.0569
      2 N1          0.7088   -0.5908    0.0498 N.pl3     1 <0>        -0.4211
      3 C2          0.5385   -1.2608   -1.1316 C.2       1 <0>         0.1264
      4 C3          0.5805   -2.5756   -0.8434 C.2       1 <0>        -0.4718
      5 N2          0.7712   -2.7049    0.4779 N.pl3     1 <0>        -0.4210
      6 C4          0.8540   -1.5201    1.0187 C.cat     1 <0>         0.2934
      7 S1          0.4141   -3.8949   -1.9995 S.o2      1 <0>         2.5814
      8 O1          0.7875   -3.3733   -3.2675 O.2       1 <0>        -0.9913
      9 O2          1.0543   -5.0243   -1.4218 O.2       1 <0>        -1.0032
     10 N3         -1.1979   -4.2619   -2.0948 N.2       1 <0>        -1.0730
     11 C5         -1.6329   -5.2818   -2.9443 C.ar      1 <0>         0.2640
     12 C6         -0.7139   -5.9931   -3.7056 C.ar      1 <0>        -0.2588
     13 C7         -1.1473   -7.0011   -4.5440 C.ar      1 <0>        -0.0713
     14 C8         -2.4946   -7.3025   -4.6267 C.ar      1 <0>        -0.1950
     15 C9         -3.4119   -6.5963   -3.8708 C.ar      1 <0>        -0.0322
     16 C10        -2.9845   -5.5909   -3.0255 C.ar      1 <0>        -0.1518
     17 C11        -4.8790   -6.9276   -3.9649 C.3       1 <0>         0.0594
     18 C12        -5.1001   -8.3552   -3.5358 C.2       1 <0>        -0.2642
     19 C13        -5.1101   -9.3587   -4.4668 C.2       1 <0>         0.2483
     20 C14        -5.3297  -10.7338   -3.9973 C.ar      1 <0>        -0.2246
     21 C15        -5.3515  -11.8061   -4.8936 C.ar      1 <0>        -0.0228
     22 C16        -5.5572  -13.0738   -4.4301 C.ar      1 <0>        -0.2226
     23 C17        -5.7459  -13.3049   -3.0694 C.ar      1 <0>         0.1877
     24 C18        -5.7277  -12.2532   -2.1682 C.ar      1 <0>        -0.1745
     25 C19        -5.5190  -10.9597   -2.6231 C.ar      1 <0>         0.2082
     26 O3         -5.4961   -9.9201   -1.7614 O.3       1 <0>        -0.2746
     27 C20        -5.2907   -8.6612   -2.1812 C.2       1 <0>         0.5288
     28 O4         -5.2740   -7.7588   -1.3620 O.2       1 <0>        -0.4526
     29 O5         -5.9498  -14.5707   -2.6232 O.3       1 <0>        -0.3058
     30 C21        -5.9578  -15.6107   -3.6033 C.3       1 <0>         0.0230
     31 O6         -4.9237   -9.0924   -5.7798 O.3       1 <0>        -0.4239
     32 C22        -5.3501   -6.7505   -5.4098 C.3       1 <0>        -0.1185
     33 C23        -6.3126   -5.5978   -5.7027 C.3       1 <0>        -0.1817
     34 C24        -6.8213   -7.0408   -5.7137 C.3       1 <0>        -0.1762
     35 H1          1.7579    1.2239    0.1215 H         1 <0>         0.1087
     36 H2          0.1030    1.3332   -0.5247 H         1 <0>         0.1180
     37 H3          0.3635    1.1136    1.2223 H         1 <0>         0.1146
     38 H4          0.3973   -0.8198   -2.1073 H         1 <0>         0.2353
     39 H5          1.0102   -1.3166    2.0678 H         1 <0>         0.2662
     40 H6          0.3382   -5.7578   -3.6421 H         1 <0>         0.0936
     41 H7         -0.4334   -7.5544   -5.1361 H         1 <0>         0.1045
     42 H8         -2.8309   -8.0911   -5.2835 H         1 <0>         0.1089
     43 H9         -3.7011   -5.0428   -2.4317 H         1 <0>         0.1149
     44 H10        -5.4445   -6.2608   -3.3140 H         1 <0>         0.0888
     45 H11        -5.2064  -11.6323   -5.9496 H         1 <0>         0.1397
     46 H12        -5.5740  -13.9023   -5.1227 H         1 <0>         0.1429
     47 H13        -5.8754  -12.4397   -1.1147 H         1 <0>         0.1548
     48 H14        -6.1301  -16.5695   -3.1142 H         1 <0>         0.1068
     49 H15        -6.7523  -15.4232   -4.3255 H         1 <0>         0.0616
     50 H16        -4.9970  -15.6326   -4.1176 H         1 <0>         0.0618
     51 H17        -4.9501   -9.8748   -6.3474 H         1 <0>         0.3897
     52 H18        -4.6184   -7.0030   -6.1772 H         1 <0>         0.1173
     53 H19        -6.6102   -4.9656   -4.8661 H         1 <0>         0.0918
     54 H20        -6.2141   -5.0916   -6.6630 H         1 <0>         0.0911
     55 H21        -7.0574   -7.4838   -6.6812 H         1 <0>         0.0890
     56 H22        -7.4535   -7.3579   -4.8843 H         1 <0>         0.0852
     57 H23         0.8404   -3.5463    0.9556 H         1 <0>         0.4694
@<TRIPOS>BOND
     1    1    2 1
     2    1   35 1
     3    1   36 1
     4    1   37 1
     5    2    6 1
     6    2    3 1
     7    3    4 2
     8    3   38 1
     9    4    5 1
    10    4    7 1
    11    5    6 2
    12    5   57 1
    13    6   39 1
    14    7    8 2
    15    7    9 2
    16    7   10 1
    17   10   11 1
    18   11   16 ar
    19   11   12 ar
    20   12   13 ar
    21   12   40 1
    22   13   14 ar
    23   13   41 1
    24   14   15 ar
    25   14   42 1
    26   15   16 ar
    27   15   17 1
    28   16   43 1
    29   17   18 1
    30   17   32 1
    31   17   44 1
    32   18   27 1
    33   18   19 2
    34   19   20 1
    35   19   31 1
    36   20   25 ar
    37   20   21 ar
    38   21   22 ar
    39   21   45 1
    40   22   23 ar
    41   22   46 1
    42   23   24 ar
    43   23   29 1
    44   24   25 ar
    45   24   47 1
    46   25   26 1
    47   26   27 1
    48   27   28 2
    49   29   30 1
    50   30   48 1
    51   30   49 1
    52   30   50 1
    53   31   51 1
    54   32   34 1
    55   32   33 1
    56   32   52 1
    57   33   34 1
    58   33   53 1
    59   33   54 1
    60   34   55 1
    61   34   56 1
