@<TRIPOS>MOLECULE
CHEMBL122542
   80    83     0     0     0
SMALL
USER_CHARGES

@<TRIPOS>ATOM
      1 C1         -2.7539    0.9460   -8.8568 C.3       1 <0>         0.0221
      2 O1         -2.9076   -0.4620   -8.6670 O.3       1 <0>        -0.3101
      3 C2         -3.3532   -0.8757   -7.4516 C.ar      1 <0>         0.1866
      4 C3         -3.6422    0.0546   -6.4639 C.ar      1 <0>        -0.2236
      5 C4         -4.0954   -0.3685   -5.2294 C.ar      1 <0>         0.0319
      6 C5         -4.2607   -1.7179   -4.9777 C.ar      1 <0>        -0.7105
      7 C6         -3.9729   -2.6472   -5.9603 C.ar      1 <0>         0.0188
      8 C7         -3.5253   -2.2288   -7.1984 C.ar      1 <0>        -0.1702
      9 S1         -4.8384   -2.2544   -3.4019 S.o2      1 <0>         2.6894
     10 O2         -4.4176   -3.6034   -3.2528 O.2       1 <0>        -0.9508
     11 O3         -4.4852   -1.2390   -2.4727 O.2       1 <0>        -0.9585
     12 N1         -6.4929   -2.2794   -3.4695 N.pl3     1 <0>        -0.9847
     13 C8         -7.1852   -3.4362   -4.0428 C.3       1 <0>         0.1302
     14 C9         -7.9314   -4.1840   -2.9361 C.3       1 <0>        -0.1065
     15 C10        -6.9241   -4.8165   -1.9538 C.3       1 <0>        -0.1356
     16 C11        -7.5689   -6.1711   -1.5684 C.3       1 <0>        -0.1252
     17 C12        -8.2032   -6.6393   -2.9017 C.3       1 <0>        -0.1261
     18 C13        -8.7447   -5.3429   -3.5388 C.3       1 <0>        -0.1181
     19 C14        -7.2642   -1.1446   -2.9560 C.3       1 <0>         0.0926
     20 C15        -7.0428    0.0720   -3.8570 C.3       1 <0>         0.0540
     21 H1         -5.9886    0.3484   -3.8417 H         1 <0>         0.1064
     22 C16        -7.8847    1.2436   -3.3477 C.3       1 <0>         0.0825
     23 N2         -7.5558    2.4497   -4.1116 N.am      1 <0>        -0.5825
     24 C17        -8.2090    2.7027   -5.3982 C.3       1 <0>         0.1399
     25 C18        -9.4907    3.5065   -5.1702 C.3       1 <0>        -0.0979
     26 C19       -10.1627    3.7668   -6.4937 C.ar      1 <0>        -0.0828
     27 C20        -9.8481    4.9019   -7.2171 C.ar      1 <0>        -0.1123
     28 C21       -10.4645    5.1407   -8.4312 C.ar      1 <0>        -0.1173
     29 C22       -11.3950    4.2440   -8.9221 C.ar      1 <0>        -0.1216
     30 C23       -11.7089    3.1084   -8.1991 C.ar      1 <0>        -0.1187
     31 C24       -11.0894    2.8675   -6.9870 C.ar      1 <0>        -0.1154
     32 C25        -6.6522    3.3264   -3.6306 C.2       1 <0>         0.6451
     33 O4         -6.4359    4.3637   -4.2253 O.2       1 <0>        -0.5563
     34 O5         -5.9893    3.0530   -2.4911 O.3       1 <0>        -0.3483
     35 C26        -5.0454    4.0265   -2.0400 C.3       1 <0>         0.0376
     36 C27        -3.6387    3.6302   -2.5015 C.3       1 <0>         0.0418
     37 O6         -2.6903    4.5384   -1.9331 O.3       1 <0>        -0.3825
     38 C28        -2.7202    4.5834   -0.5044 C.3       1 <0>         0.2126
     39 O7         -4.0257    4.9685   -0.0670 O.3       1 <0>        -0.3816
     40 C29        -5.0647    4.0894   -0.5089 C.3       1 <0>         0.0606
     41 O8         -7.4319   -0.2484   -5.1941 O.3       1 <0>        -0.5412
     42 H2         -2.3930    1.1392   -9.8670 H         1 <0>         0.1066
     43 H3         -3.7156    1.4390   -8.7140 H         1 <0>         0.0608
     44 H4         -2.0360    1.3338   -8.1340 H         1 <0>         0.0605
     45 H5         -3.5125    1.1088   -6.6598 H         1 <0>         0.1355
     46 H6         -4.3205    0.3554   -4.4602 H         1 <0>         0.1316
     47 H7         -4.1025   -3.7007   -5.7611 H         1 <0>         0.1447
     48 H8         -3.3049   -2.9548   -7.9671 H         1 <0>         0.1412
     49 H9         -7.8966   -3.0974   -4.7959 H         1 <0>         0.0777
     50 H10        -6.4571   -4.1031   -4.5048 H         1 <0>         0.0867
     51 H11        -8.5933   -3.5002   -2.4046 H         1 <0>         0.0758
     52 H12        -5.9634   -4.9768   -2.4430 H         1 <0>         0.0899
     53 H13        -6.8040   -4.1868   -1.0723 H         1 <0>         0.0596
     54 H14        -6.8105   -6.8782   -1.2322 H         1 <0>         0.0662
     55 H15        -8.3339   -6.0314   -0.8047 H         1 <0>         0.0639
     56 H16        -7.4490   -7.0939   -3.5440 H         1 <0>         0.0667
     57 H17        -9.0165   -7.3397   -2.7119 H         1 <0>         0.0641
     58 H18        -9.8011   -5.2220   -3.2991 H         1 <0>         0.0654
     59 H19        -8.6077   -5.3726   -4.6197 H         1 <0>         0.0663
     60 H20        -8.3236   -1.4007   -2.9450 H         1 <0>         0.0988
     61 H21        -6.9363   -0.9111   -1.9431 H         1 <0>         0.0931
     62 H22        -8.9426    1.0120   -3.4721 H         1 <0>         0.0920
     63 H23        -7.6714    1.4126   -2.2922 H         1 <0>         0.1028
     64 H24        -7.5356    3.2678   -6.0427 H         1 <0>         0.0871
     65 H25        -8.4553    1.7532   -5.8736 H         1 <0>         0.0960
     66 H26       -10.1641    2.9414   -4.5257 H         1 <0>         0.0742
     67 H27        -9.2444    4.4559   -4.6948 H         1 <0>         0.0781
     68 H28        -9.1211    5.6025   -6.8336 H         1 <0>         0.1227
     69 H29       -10.2192    6.0279   -8.9961 H         1 <0>         0.1222
     70 H30       -11.8771    4.4309   -9.8703 H         1 <0>         0.1214
     71 H31       -12.4362    2.4080   -8.5824 H         1 <0>         0.1219
     72 H32       -11.3319    1.9784   -6.4239 H         1 <0>         0.1205
     73 H33        -5.3044    5.0031   -2.4490 H         1 <0>         0.1094
     74 H34        -3.4176    2.6161   -2.1687 H         1 <0>         0.0714
     75 H35        -3.5842    3.6791   -3.5891 H         1 <0>         0.1035
     76 H36        -2.4790    3.5984   -0.1048 H         1 <0>         0.0558
     77 H37        -1.9890    5.3090   -0.1483 H         1 <0>         0.1378
     78 H38        -6.0300    4.4667   -0.1713 H         1 <0>         0.1097
     79 H39        -4.8977    3.0927   -0.1005 H         1 <0>         0.0723
     80 H40        -8.3602   -0.5042   -5.2831 H         1 <0>         0.3728
@<TRIPOS>BOND
     1    1    2 1
     2    1   42 1
     3    1   43 1
     4    1   44 1
     5    2    3 1
     6    3    8 ar
     7    3    4 ar
     8    4    5 ar
     9    4   45 1
    10    5    6 ar
    11    5   46 1
    12    6    7 ar
    13    6    9 1
    14    7    8 ar
    15    7   47 1
    16    8   48 1
    17    9   10 2
    18    9   11 2
    19    9   12 1
    20   12   13 1
    21   12   19 1
    22   13   14 1
    23   13   49 1
    24   13   50 1
    25   14   18 1
    26   14   15 1
    27   14   51 1
    28   15   16 1
    29   15   52 1
    30   15   53 1
    31   16   17 1
    32   16   54 1
    33   16   55 1
    34   17   18 1
    35   17   56 1
    36   17   57 1
    37   18   58 1
    38   18   59 1
    39   19   20 1
    40   19   60 1
    41   19   61 1
    42   20   21 1
    43   20   22 1
    44   20   41 1
    45   22   23 1
    46   22   62 1
    47   22   63 1
    48   23   24 1
    49   23   32 am
    50   24   25 1
    51   24   64 1
    52   24   65 1
    53   25   26 1
    54   25   66 1
    55   25   67 1
    56   26   31 ar
    57   26   27 ar
    58   27   28 ar
    59   27   68 1
    60   28   29 ar
    61   28   69 1
    62   29   30 ar
    63   29   70 1
    64   30   31 ar
    65   30   71 1
    66   31   72 1
    67   32   33 2
    68   32   34 1
    69   34   35 1
    70   35   40 1
    71   35   36 1
    72   35   73 1
    73   36   37 1
    74   36   74 1
    75   36   75 1
    76   37   38 1
    77   38   39 1
    78   38   76 1
    79   38   77 1
    80   39   40 1
    81   40   78 1
    82   40   79 1
    83   41   80 1
