@<TRIPOS>MOLECULE
CHEMBL326566
   73    76     0     0     0
SMALL
USER_CHARGES

@<TRIPOS>ATOM
      1 C1          0.0482    1.8634   -2.1753 C.3       1 <0>        -0.1537
      2 C2          0.1130    0.3397   -2.2989 C.3       1 <0>        -0.1249
      3 C3          0.6379   -0.2561   -0.9910 C.3       1 <0>        -0.1520
      4 C4          0.5784   -1.7831   -1.0662 C.3       1 <0>         0.1453
      5 C5          1.1086   -2.3805    0.2425 C.3       1 <0>        -0.2050
      6 C6          0.1459   -2.0215    1.3564 C.2       1 <0>         0.3642
      7 O1          0.5326   -1.5196    2.3844 O.2       1 <0>        -0.4144
      8 C7         -1.3245   -2.3185    1.1261 C.3       1 <0>        -0.1797
      9 C8         -1.6505   -1.8783   -0.2875 C.2       1 <0>         0.5022
     10 O2         -0.7767   -2.1988   -1.2638 O.3       1 <0>        -0.3527
     11 O3         -2.6601   -1.2609   -0.5317 O.2       1 <0>        -0.4283
     12 C9         -1.5839   -3.8187    1.2784 C.3       1 <0>        -0.0237
     13 C10        -3.0467   -4.1196    0.9460 C.3       1 <0>        -0.1201
     14 C11        -3.2759   -5.6321    0.9762 C.3       1 <0>        -0.1500
     15 C12        -1.2947   -4.2371    2.6969 C.ar      1 <0>        -0.0685
     16 C13        -2.0032   -3.6721    3.7418 C.ar      1 <0>        -0.1115
     17 C14        -1.7407   -4.0527    5.0448 C.ar      1 <0>        -0.0887
     18 C15        -0.7698   -4.9995    5.3072 C.ar      1 <0>        -0.1494
     19 C16        -0.0568   -5.5692    4.2602 C.ar      1 <0>         0.1443
     20 C17        -0.3267   -5.1882    2.9517 C.ar      1 <0>        -0.1215
     21 N1          0.9257   -6.5269    4.5219 N.pl3     1 <0>        -1.0547
     22 S1          0.6239   -7.7506    5.5961 S.o2      1 <0>         2.6922
     23 O4          1.7894   -8.5630    5.6240 O.2       1 <0>        -0.9458
     24 O5          0.0907   -7.1429    6.7647 O.2       1 <0>        -0.9423
     25 C18        -0.6632   -8.7397    4.9108 C.ar      1 <0>        -0.6923
     26 C19        -1.9846   -8.4412    5.1860 C.ar      1 <0>         0.0156
     27 C20        -2.9950   -9.2160    4.6488 C.ar      1 <0>        -0.1735
     28 C21        -2.6833  -10.2916    3.8346 C.ar      1 <0>         0.1618
     29 C22        -1.3594  -10.5897    3.5596 C.ar      1 <0>        -0.1747
     30 C23        -0.3509   -9.8103    4.0938 C.ar      1 <0>         0.0122
     31 F1         -3.6702  -11.0501    3.3091 F         1 <0>        -0.1267
     32 C24         1.4373   -2.2703   -2.2349 C.3       1 <0>        -0.1013
     33 C25         1.3776   -3.7973   -2.3097 C.3       1 <0>        -0.0843
     34 C26         2.2236   -4.2773   -3.4608 C.ar      1 <0>        -0.0841
     35 C27         1.6647   -4.4193   -4.7172 C.ar      1 <0>        -0.1152
     36 C28         2.4407   -4.8595   -5.7731 C.ar      1 <0>        -0.1174
     37 C29         3.7757   -5.1573   -5.5727 C.ar      1 <0>        -0.1232
     38 C30         4.3347   -5.0145   -4.3166 C.ar      1 <0>        -0.1181
     39 C31         3.5598   -4.5701   -3.2616 C.ar      1 <0>        -0.1183
     40 H1         -0.6212    2.1335   -1.3586 H         1 <0>         0.0531
     41 H2          1.0452    2.2542   -1.9724 H         1 <0>         0.0549
     42 H3         -0.3258    2.2878   -3.1071 H         1 <0>         0.0589
     43 H4         -0.8841   -0.0511   -2.5018 H         1 <0>         0.0729
     44 H5          0.7824    0.0696   -3.1156 H         1 <0>         0.0711
     45 H6          1.6694    0.0601   -0.8359 H         1 <0>         0.0911
     46 H7          0.0227    0.0911   -0.1609 H         1 <0>         0.0641
     47 H8          1.1758   -3.4645    0.1504 H         1 <0>         0.1212
     48 H9          2.0937   -1.9684    0.4616 H         1 <0>         0.1175
     49 H10        -0.9357   -4.3704    0.5975 H         1 <0>         0.0960
     50 H11        -3.6925   -3.6396    1.6813 H         1 <0>         0.0748
     51 H12        -3.2798   -3.7366   -0.0475 H         1 <0>         0.0706
     52 H13        -4.2926   -5.8521    0.6507 H         1 <0>         0.0598
     53 H14        -2.5667   -6.1204    0.3077 H         1 <0>         0.0558
     54 H15        -3.1315   -6.0013    1.9915 H         1 <0>         0.0584
     55 H16        -2.7629   -2.9316    3.5395 H         1 <0>         0.1266
     56 H17        -2.2952   -3.6090    5.8585 H         1 <0>         0.1340
     57 H18        -0.5650   -5.2961    6.3252 H         1 <0>         0.1597
     58 H19         0.2231   -5.6322    2.1350 H         1 <0>         0.1286
     59 H20         1.7848   -6.4752    4.0745 H         1 <0>         0.4285
     60 H21        -2.2275   -7.6023    5.8214 H         1 <0>         0.1509
     61 H22        -4.0273   -8.9828    4.8642 H         1 <0>         0.1483
     62 H23        -1.1152  -11.4287    2.9249 H         1 <0>         0.1485
     63 H24         0.6816  -10.0399    3.8759 H         1 <0>         0.1514
     64 H25         1.0596   -1.8459   -3.1651 H         1 <0>         0.0898
     65 H26         2.4694   -1.9540   -2.0839 H         1 <0>         0.0924
     66 H27         1.7553   -4.2218   -1.3795 H         1 <0>         0.0742
     67 H28         0.3455   -4.1136   -2.4607 H         1 <0>         0.0842
     68 H29         0.6218   -4.1866   -4.8737 H         1 <0>         0.1222
     69 H30         2.0039   -4.9711   -6.7545 H         1 <0>         0.1217
     70 H31         4.3817   -5.5020   -6.3975 H         1 <0>         0.1208
     71 H32         5.3776   -5.2475   -4.1599 H         1 <0>         0.1214
     72 H33         3.9974   -4.4550   -2.2810 H         1 <0>         0.1206
     73 H34        -1.9324   -1.7610    1.8387 H         1 <0>         0.1338
@<TRIPOS>BOND
     1    1    2 1
     2    1   40 1
     3    1   41 1
     4    1   42 1
     5    2    3 1
     6    2   43 1
     7    2   44 1
     8    3    4 1
     9    3   45 1
    10    3   46 1
    11    4   10 1
    12    4    5 1
    13    4   32 1
    14    5    6 1
    15    5   47 1
    16    5   48 1
    17    6    7 2
    18    6    8 1
    19    8    9 1
    20    8   12 1
    21    8   73 1
    22    9   10 1
    23    9   11 2
    24   12   13 1
    25   12   15 1
    26   12   49 1
    27   13   14 1
    28   13   50 1
    29   13   51 1
    30   14   52 1
    31   14   53 1
    32   14   54 1
    33   15   20 ar
    34   15   16 ar
    35   16   17 ar
    36   16   55 1
    37   17   18 ar
    38   17   56 1
    39   18   19 ar
    40   18   57 1
    41   19   20 ar
    42   19   21 1
    43   20   58 1
    44   21   22 1
    45   21   59 1
    46   22   23 2
    47   22   24 2
    48   22   25 1
    49   25   30 ar
    50   25   26 ar
    51   26   27 ar
    52   26   60 1
    53   27   28 ar
    54   27   61 1
    55   28   29 ar
    56   28   31 1
    57   29   30 ar
    58   29   62 1
    59   30   63 1
    60   32   33 1
    61   32   64 1
    62   32   65 1
    63   33   34 1
    64   33   66 1
    65   33   67 1
    66   34   39 ar
    67   34   35 ar
    68   35   36 ar
    69   35   68 1
    70   36   37 ar
    71   36   69 1
    72   37   38 ar
    73   37   70 1
    74   38   39 ar
    75   38   71 1
    76   39   72 1
