@<TRIPOS>MOLECULE
CHEMBL59732
   86    89     0     0     0
SMALL
USER_CHARGES

@<TRIPOS>ATOM
      1 C1         -0.1388    1.3019    0.5618 C.ar      1 <0>        -0.1189
      2 C2          1.0235    2.0339    0.7173 C.ar      1 <0>        -0.1151
      3 C3          2.2520    1.4047    0.6406 C.ar      1 <0>        -0.1104
      4 C4          2.3181    0.0435    0.4089 C.ar      1 <0>        -0.0642
      5 C5          1.1558   -0.6886    0.2544 C.ar      1 <0>        -0.1045
      6 C6         -0.0727   -0.0592    0.3296 C.ar      1 <0>        -0.1113
      7 C7          3.6574   -0.6423    0.3244 C.3       1 <0>        -0.1044
      8 C8          4.0756   -1.1179    1.7171 C.3       1 <0>         0.1420
      9 C9          5.3731   -1.9220    1.6132 C.3       1 <0>         0.0825
     10 C10         5.1190   -3.1985    0.8088 C.3       1 <0>         0.0985
     11 N1          6.3344   -4.0163    0.7938 N.am      1 <0>        -0.5969
     12 C11         6.6780   -4.9657    1.8817 C.3       1 <0>         0.1195
     13 C12         5.8847   -6.2562    1.6669 C.3       1 <0>        -0.1395
     14 C13         6.7781   -7.2980    0.9906 C.3       1 <0>        -0.1265
     15 C14         5.9115   -8.2640    0.1803 C.3       1 <0>        -0.1174
     16 C15         6.8082   -9.1444   -0.6924 C.3       1 <0>        -0.1239
     17 C16         6.4942   -8.8881   -2.1677 C.3       1 <0>        -0.1189
     18 C17         7.5553   -7.9588   -2.7608 C.3       1 <0>        -0.1169
     19 C18         7.4293   -7.9481   -4.2855 C.3       1 <0>        -0.1153
     20 C19         8.3361   -6.8599   -4.8641 C.3       1 <0>        -0.0928
     21 C20         7.7344   -5.5060   -4.5889 C.2       1 <0>        -0.1518
     22 C21         8.3664   -4.6511   -3.8235 C.2       1 <0>        -0.1598
     23 C22         7.7635   -3.2974   -3.5491 C.3       1 <0>        -0.1073
     24 C23         8.1187   -2.8589   -2.1271 C.3       1 <0>         0.0731
     25 O1          7.0191   -3.1307   -1.2557 O.3       1 <0>        -0.3621
     26 C24         7.2453   -3.9726   -0.2282 C.2       1 <0>         0.6535
     27 O2          8.2405   -4.6693   -0.2038 O.2       1 <0>        -0.5502
     28 O3          6.3695   -1.1357    0.9566 O.3       1 <0>        -0.5470
     29 N2          4.2884    0.0423    2.5860 N.am      1 <0>        -0.6999
     30 C25         3.2455    0.6011    3.2314 C.2       1 <0>         0.6440
     31 O4          2.1288    0.1427    3.0927 O.2       1 <0>        -0.5473
     32 O5          3.4411    1.6674    4.0299 O.3       1 <0>        -0.3473
     33 C26         2.2909    2.2086    4.6827 C.3       1 <0>         0.0855
     34 H1          1.3980    2.0372    4.0815 H         1 <0>         0.1081
     35 C27         2.1245    1.5856    6.0796 C.3       1 <0>         0.0373
     36 O6          2.1918    2.6424    7.0424 O.3       1 <0>        -0.3539
     37 C28         2.8634    3.7651    6.4519 C.3       1 <0>         0.2331
     38 H2          2.5709    4.7061    6.9177 H         1 <0>         0.1300
     39 C29         2.4814    3.7166    4.9444 C.3       1 <0>        -0.1487
     40 H3          1.5987    4.3082    4.7015 H         1 <0>         0.1263
     41 C30         3.7634    4.1937    4.2337 C.3       1 <0>        -0.1418
     42 C31         4.8693    4.0763    5.2960 C.3       1 <0>         0.0591
     43 O7          4.2809    3.5544    6.5132 O.3       1 <0>        -0.3841
     44 H4         -1.0987    1.7927    0.6261 H         1 <0>         0.1160
     45 H5          0.9718    3.0973    0.8983 H         1 <0>         0.1132
     46 H6          3.1601    1.9766    0.7614 H         1 <0>         0.1083
     47 H7          1.2075   -1.7520    0.0730 H         1 <0>         0.1153
     48 H8         -0.9808   -0.6311    0.2084 H         1 <0>         0.1173
     49 H9          3.5853   -1.4989   -0.3457 H         1 <0>         0.0886
     50 H10         4.4002    0.0573   -0.0589 H         1 <0>         0.0803
     51 H11         3.2909   -1.7472    2.1370 H         1 <0>         0.1040
     52 H12         5.7186   -2.1852    2.6129 H         1 <0>         0.1126
     53 H13         4.3074   -3.7623    1.2688 H         1 <0>         0.0929
     54 H14         4.8452   -2.9357   -0.2130 H         1 <0>         0.0964
     55 H15         7.7457   -5.1832    1.8544 H         1 <0>         0.1016
     56 H16         6.4143   -4.5297    2.8452 H         1 <0>         0.0768
     57 H17         5.5454   -6.6386    2.6296 H         1 <0>         0.0702
     58 H18         5.0219   -6.0511    1.0331 H         1 <0>         0.0687
     59 H19         7.4820   -6.7967    0.3263 H         1 <0>         0.0803
     60 H20         7.3280   -7.8532    1.7505 H         1 <0>         0.0594
     61 H21         5.3355   -8.8925    0.8595 H         1 <0>         0.0561
     62 H22         5.2311   -7.6964   -0.4545 H         1 <0>         0.0596
     63 H23         7.8534   -8.9054   -0.4965 H         1 <0>         0.0659
     64 H24         6.6254  -10.1933   -0.4589 H         1 <0>         0.0579
     65 H25         6.4961   -9.8341   -2.7093 H         1 <0>         0.0573
     66 H26         5.5130   -8.4216   -2.2547 H         1 <0>         0.0600
     67 H27         7.4093   -6.9491   -2.3771 H         1 <0>         0.0651
     68 H28         8.5469   -8.3140   -2.4807 H         1 <0>         0.0583
     69 H29         7.7281   -8.9187   -4.6817 H         1 <0>         0.0616
     70 H30         6.3951   -7.7450   -4.5633 H         1 <0>         0.0609
     71 H31         9.3200   -6.9216   -4.3990 H         1 <0>         0.0656
     72 H32         8.4334   -7.0023   -5.9404 H         1 <0>         0.0690
     73 H33         6.7818   -5.2401   -5.0232 H         1 <0>         0.1053
     74 H34         9.3188   -4.9165   -3.3891 H         1 <0>         0.1102
     75 H35         8.1577   -2.5730   -4.2618 H         1 <0>         0.0893
     76 H36         6.6799   -3.3549   -3.6515 H         1 <0>         0.0813
     77 H37         8.9966   -3.4078   -1.7863 H         1 <0>         0.0874
     78 H38         8.3329   -1.7902   -2.1193 H         1 <0>         0.0882
     79 H39         6.1290   -0.8649    0.0600 H         1 <0>         0.3772
     80 H40         5.1799    0.4082    2.6967 H         1 <0>         0.4105
     81 H41         1.1585    1.0853    6.1477 H         1 <0>         0.0996
     82 H42         2.9253    0.8689    6.2617 H         1 <0>         0.0718
     83 H43         3.9861    3.5516    3.3816 H         1 <0>         0.0943
     84 H44         3.6554    5.2293    3.9114 H         1 <0>         0.0813
     85 H45         5.6508    3.4039    4.9420 H         1 <0>         0.0846
     86 H46         5.2925    5.0602    5.4981 H         1 <0>         0.0655
@<TRIPOS>BOND
     1    1    6 ar
     2    1    2 ar
     3    1   44 1
     4    2    3 ar
     5    2   45 1
     6    3    4 ar
     7    3   46 1
     8    4    5 ar
     9    4    7 1
    10    5    6 ar
    11    5   47 1
    12    6   48 1
    13    7    8 1
    14    7   49 1
    15    7   50 1
    16    8    9 1
    17    8   29 1
    18    8   51 1
    19    9   10 1
    20    9   28 1
    21    9   52 1
    22   10   11 1
    23   10   53 1
    24   10   54 1
    25   11   26 am
    26   11   12 1
    27   12   13 1
    28   12   55 1
    29   12   56 1
    30   13   14 1
    31   13   57 1
    32   13   58 1
    33   14   15 1
    34   14   59 1
    35   14   60 1
    36   15   16 1
    37   15   61 1
    38   15   62 1
    39   16   17 1
    40   16   63 1
    41   16   64 1
    42   17   18 1
    43   17   65 1
    44   17   66 1
    45   18   19 1
    46   18   67 1
    47   18   68 1
    48   19   20 1
    49   19   69 1
    50   19   70 1
    51   20   21 1
    52   20   71 1
    53   20   72 1
    54   21   22 2
    55   21   73 1
    56   22   23 1
    57   22   74 1
    58   23   24 1
    59   23   75 1
    60   23   76 1
    61   24   25 1
    62   24   77 1
    63   24   78 1
    64   25   26 1
    65   26   27 2
    66   28   79 1
    67   29   30 am
    68   29   80 1
    69   30   31 2
    70   30   32 1
    71   32   33 1
    72   33   34 1
    73   33   39 1
    74   33   35 1
    75   35   36 1
    76   35   81 1
    77   35   82 1
    78   36   37 1
    79   37   38 1
    80   37   43 1
    81   37   39 1
    82   39   40 1
    83   39   41 1
    84   41   42 1
    85   41   83 1
    86   41   84 1
    87   42   43 1
    88   42   85 1
    89   42   86 1
