@<TRIPOS>MOLECULE
CHEMBL148090
   82    84     0     0     0
SMALL
USER_CHARGES

@<TRIPOS>ATOM
      1 C1          3.0013   -6.6476    2.5902 C.3       1 <0>        -0.1444
      2 C2          1.7165   -6.0495    2.0136 C.3       1 <0>        -0.1094
      3 C3          1.0378   -5.1803    3.0740 C.3       1 <0>        -0.1420
      4 C4          2.0562   -5.1924    0.7926 C.3       1 <0>         0.1680
      5 H1          2.7858   -4.4328    1.0735 H         1 <0>         0.0936
      6 C5          2.6422   -6.0804   -0.3069 C.3       1 <0>         0.0608
      7 O1          1.7339   -7.1457   -0.5935 O.3       1 <0>        -0.5382
      8 N1          0.8399   -4.5422    0.2987 N.am      1 <0>        -0.6097
      9 C6          0.7023   -3.0969    0.0838 C.3       1 <0>         0.1052
     10 C7         -0.5359   -2.9314   -0.8249 C.3       1 <0>        -0.1519
     11 C8         -1.3390   -4.2122   -0.5000 C.3       1 <0>        -0.0765
     12 C9         -0.2917   -5.1933   -0.0213 C.2       1 <0>         0.5308
     13 O2         -0.4508   -6.3926    0.0638 O.2       1 <0>        -0.4915
     14 C10        -2.3648   -3.9361    0.6011 C.3       1 <0>        -0.0621
     15 C11        -3.3957   -2.9607    0.0941 C.ar      1 <0>        -0.0748
     16 C12        -3.2274   -1.6050    0.3054 C.ar      1 <0>        -0.1162
     17 C13        -4.1730   -0.7104   -0.1596 C.ar      1 <0>        -0.1172
     18 C14        -5.2867   -1.1714   -0.8364 C.ar      1 <0>        -0.1219
     19 C15        -5.4546   -2.5270   -1.0486 C.ar      1 <0>        -0.1154
     20 C16        -4.5068   -3.4214   -0.5873 C.ar      1 <0>        -0.1127
     21 C17        -2.0306   -4.7439   -1.7569 C.3       1 <0>        -0.1258
     22 C18        -0.9758   -5.2371   -2.7494 C.3       1 <0>         0.0971
     23 H2         -0.3181   -5.9522   -2.2552 H         1 <0>         0.1285
     24 C19        -1.6675   -5.9147   -3.9340 C.3       1 <0>         0.1435
     25 H3         -2.2541   -6.7611   -3.5766 H         1 <0>         0.1022
     26 C20        -0.6128   -6.4080   -4.9265 C.3       1 <0>        -0.0890
     27 C21        -1.2852   -7.1821   -6.0308 C.ar      1 <0>        -0.0621
     28 C22        -1.4756   -8.5453   -5.9026 C.ar      1 <0>        -0.1059
     29 C23        -2.0924   -9.2553   -6.9155 C.ar      1 <0>        -0.1112
     30 C24        -2.5193   -8.6022   -8.0566 C.ar      1 <0>        -0.1240
     31 C25        -2.3298   -7.2389   -8.1845 C.ar      1 <0>        -0.1105
     32 C26        -1.7168   -6.5281   -7.1697 C.ar      1 <0>        -0.1109
     33 N2         -2.5515   -4.9537   -4.5983 N.am      1 <0>        -0.7082
     34 C27        -3.6105   -5.3911   -5.3079 C.2       1 <0>         0.6510
     35 O3         -3.8321   -6.5825   -5.3968 O.2       1 <0>        -0.5423
     36 O4         -4.4229   -4.5079   -5.9184 O.3       1 <0>        -0.3620
     37 C28        -5.5260   -5.0416   -6.6534 C.3       1 <0>         0.1396
     38 C29        -6.4255   -5.8448   -5.7117 C.3       1 <0>        -0.1847
     39 C30        -6.3292   -3.8956   -7.2718 C.3       1 <0>        -0.1412
     40 C31        -5.0045   -5.9560   -7.7637 C.3       1 <0>        -0.1923
     41 O5         -0.2068   -4.1275   -3.2179 O.3       1 <0>        -0.5428
     42 H4          2.7593   -7.2582    3.4601 H         1 <0>         0.0575
     43 H5          3.4849   -7.2669    1.8347 H         1 <0>         0.0565
     44 H6          3.6751   -5.8437    2.8868 H         1 <0>         0.0511
     45 H7          1.0428   -6.8534    1.7170 H         1 <0>         0.1020
     46 H8          0.7415   -5.8025    3.9186 H         1 <0>         0.0536
     47 H9          1.7332   -4.4130    3.4143 H         1 <0>         0.0494
     48 H10         0.1552   -4.7062    2.6447 H         1 <0>         0.0511
     49 H11         2.8016   -5.4868   -1.2071 H         1 <0>         0.0446
     50 H12         3.5932   -6.4942    0.0285 H         1 <0>         0.0524
     51 H13         2.0412   -7.7499   -1.2831 H         1 <0>         0.3678
     52 H14         0.5434   -2.5877    1.0343 H         1 <0>         0.0624
     53 H15         1.5895   -2.7032   -0.4121 H         1 <0>         0.0742
     54 H16        -1.1003   -2.0384   -0.5563 H         1 <0>         0.0858
     55 H17        -0.2480   -2.9076   -1.8760 H         1 <0>         0.1168
     56 H18        -2.8544   -4.8681    0.8835 H         1 <0>         0.0794
     57 H19        -1.8605   -3.5128    1.4697 H         1 <0>         0.0752
     58 H20        -2.3573   -1.2449    0.8342 H         1 <0>         0.1207
     59 H21        -4.0419    0.3487    0.0061 H         1 <0>         0.1210
     60 H22        -6.0259   -0.4725   -1.1992 H         1 <0>         0.1199
     61 H23        -6.3248   -2.8872   -1.5770 H         1 <0>         0.1196
     62 H24        -4.6361   -4.4802   -0.7562 H         1 <0>         0.1191
     63 H25        -2.6898   -5.5690   -1.4874 H         1 <0>         0.0814
     64 H26        -2.6155   -3.9462   -2.2148 H         1 <0>         0.0797
     65 H27        -0.0854   -5.5536   -5.3507 H         1 <0>         0.0799
     66 H28         0.0977   -7.0539   -4.4106 H         1 <0>         0.0829
     67 H29        -1.1421   -9.0555   -5.0111 H         1 <0>         0.1143
     68 H30        -2.2405  -10.3205   -6.8156 H         1 <0>         0.1154
     69 H31        -3.0006   -9.1571   -8.8484 H         1 <0>         0.1143
     70 H32        -2.6630   -6.7287   -9.0762 H         1 <0>         0.1126
     71 H33        -1.5721   -5.4624   -7.2680 H         1 <0>         0.1071
     72 H34        -2.3746   -4.0026   -4.5273 H         1 <0>         0.3968
     73 H35        -6.7971   -5.1934   -4.9207 H         1 <0>         0.0565
     74 H36        -7.2670   -6.2519   -6.2724 H         1 <0>         0.0672
     75 H37        -5.8533   -6.6613   -5.2712 H         1 <0>         0.0884
     76 H38        -5.6884   -3.3234   -7.9426 H         1 <0>         0.0650
     77 H39        -7.1707   -4.3027   -7.8324 H         1 <0>         0.0789
     78 H40        -6.7008   -3.2441   -6.4807 H         1 <0>         0.0648
     79 H41        -4.4323   -6.7725   -7.3232 H         1 <0>         0.1028
     80 H42        -5.8459   -6.3631   -8.3244 H         1 <0>         0.0641
     81 H43        -4.3637   -5.3838   -8.4346 H         1 <0>         0.0560
     82 H44        -0.7286   -3.4500   -3.6693 H         1 <0>         0.3680
@<TRIPOS>BOND
     1    1    2 1
     2    1   42 1
     3    1   43 1
     4    1   44 1
     5    2    3 1
     6    2    4 1
     7    2   45 1
     8    3   46 1
     9    3   47 1
    10    3   48 1
    11    4    5 1
    12    4    6 1
    13    4    8 1
    14    6    7 1
    15    6   49 1
    16    6   50 1
    17    7   51 1
    18    8   12 am
    19    8    9 1
    20    9   10 1
    21    9   52 1
    22    9   53 1
    23   10   11 1
    24   10   54 1
    25   10   55 1
    26   11   12 1
    27   11   14 1
    28   11   21 1
    29   12   13 2
    30   14   15 1
    31   14   56 1
    32   14   57 1
    33   15   20 ar
    34   15   16 ar
    35   16   17 ar
    36   16   58 1
    37   17   18 ar
    38   17   59 1
    39   18   19 ar
    40   18   60 1
    41   19   20 ar
    42   19   61 1
    43   20   62 1
    44   21   22 1
    45   21   63 1
    46   21   64 1
    47   22   23 1
    48   22   24 1
    49   22   41 1
    50   24   25 1
    51   24   26 1
    52   24   33 1
    53   26   27 1
    54   26   65 1
    55   26   66 1
    56   27   32 ar
    57   27   28 ar
    58   28   29 ar
    59   28   67 1
    60   29   30 ar
    61   29   68 1
    62   30   31 ar
    63   30   69 1
    64   31   32 ar
    65   31   70 1
    66   32   71 1
    67   33   34 am
    68   33   72 1
    69   34   35 2
    70   34   36 1
    71   36   37 1
    72   37   38 1
    73   37   39 1
    74   37   40 1
    75   38   73 1
    76   38   74 1
    77   38   75 1
    78   39   76 1
    79   39   77 1
    80   39   78 1
    81   40   79 1
    82   40   80 1
    83   40   81 1
    84   41   82 1
