@<TRIPOS>MOLECULE
CHEMBL351155
   75    78     0     0     0
SMALL
USER_CHARGES

@<TRIPOS>ATOM
      1 C1          0.2140    1.2230    0.1497 C.3       1 <0>        -0.0708
      2 C2          0.0899   -0.2778    0.0938 C.ar      1 <0>        -0.1473
      3 C3          0.0109   -0.9190   -1.1265 C.ar      1 <0>        -0.0621
      4 C4         -0.1035   -2.3027   -1.1779 C.ar      1 <0>        -0.1547
      5 C5         -0.1383   -3.0409   -0.0008 C.ar      1 <0>        -0.0231
      6 C6         -0.0592   -2.3991    1.2187 C.ar      1 <0>        -0.2478
      7 C7          0.0608   -1.0162    1.2695 C.ar      1 <0>         0.2604
      8 N1          0.1468   -0.3662    2.5065 N.2       1 <0>        -1.0828
      9 S1          0.1121   -1.2465    3.9086 S.o2      1 <0>         2.6122
     10 O1         -1.1829   -1.8255    3.9928 O.2       1 <0>        -1.0262
     11 O2          1.2986   -2.0282    3.9269 O.2       1 <0>        -1.0263
     12 C8          0.2408   -0.1044    5.2442 C.2       1 <0>        -0.6477
     13 C9         -0.7461    0.5304    5.9227 C.2       1 <0>        -0.0575
     14 C10        -0.4070    1.3935    6.9477 C.2       1 <0>        -0.1759
     15 C11         0.9025    1.5796    7.2441 C.2       1 <0>        -0.1817
     16 S2          1.7047    0.5110    6.0600 S.3       1 <0>         0.1336
     17 C12        -0.2629   -4.5417   -0.0560 C.3       1 <0>        -0.0227
     18 C13        -0.2779   -5.1048    1.3666 C.3       1 <0>        -0.1389
     19 C14        -1.5633   -4.9198   -0.7678 C.3       1 <0>        -0.1497
     20 C15         0.9261   -5.1244   -0.8225 C.3       1 <0>        -0.1473
     21 S3         -0.2050   -3.1214   -2.7349 S.3       1 <0>         0.0230
     22 C16        -0.3120   -1.8057   -3.9021 C.2       1 <0>        -0.5438
     23 C17         0.7167   -1.5914   -4.7903 C.2       1 <0>         0.4881
     24 O3          0.6445   -0.5889   -5.6906 O.3       1 <0>        -0.3431
     25 C18        -0.6633   -0.2210   -6.1418 C.3       1 <0>         0.1475
     26 C19        -1.5179    0.1469   -4.9231 C.3       1 <0>        -0.1912
     27 C20        -1.4451   -0.9856   -3.9268 C.2       1 <0>         0.4002
     28 O4         -2.3612   -1.1803   -3.1503 O.2       1 <0>        -0.5284
     29 C21        -1.3020   -1.3993   -6.8798 C.3       1 <0>        -0.1360
     30 C22        -2.6769   -0.9853   -7.4081 C.3       1 <0>        -0.0821
     31 C23        -3.2958   -2.1382   -8.1557 C.ar      1 <0>        -0.0689
     32 C24        -3.0692   -2.2841   -9.5115 C.ar      1 <0>        -0.1197
     33 C25        -3.6368   -3.3417  -10.1973 C.ar      1 <0>        -0.1242
     34 C26        -4.4307   -4.2535   -9.5272 C.ar      1 <0>        -0.1328
     35 C27        -4.6566   -4.1081   -8.1712 C.ar      1 <0>        -0.1178
     36 C28        -4.0855   -3.0530   -7.4846 C.ar      1 <0>        -0.1106
     37 C29        -0.5626    0.9831   -7.0805 C.3       1 <0>        -0.0808
     38 C30         0.0675    2.1605   -6.3337 C.3       1 <0>        -0.1491
     39 C31         0.3073    0.6191   -8.2854 C.3       1 <0>        -0.1450
     40 O5          1.8049   -2.3885   -4.7607 O.3       1 <0>        -0.6288
     41 H1          1.2678    1.5013    0.1360 H         1 <0>         0.0401
     42 H2         -0.2888    1.6615   -0.7123 H         1 <0>         0.0310
     43 H3         -0.2473    1.5919    1.0658 H         1 <0>         0.0665
     44 H4          0.0376   -0.3449   -2.0409 H         1 <0>         0.1031
     45 H5         -0.0863   -2.9727    2.1334 H         1 <0>         0.0997
     46 H6         -1.7820    0.3645    5.6660 H         1 <0>         0.1420
     47 H7         -1.1739    1.9120    7.5038 H         1 <0>         0.1327
     48 H8          1.3455    2.2081    8.0025 H         1 <0>         0.1848
     49 H9         -1.1250   -4.6897    1.9127 H         1 <0>         0.0546
     50 H10        -0.3680   -6.1903    1.3267 H         1 <0>         0.0432
     51 H11         0.6486   -4.8355    1.8737 H         1 <0>         0.0547
     52 H12        -1.5526   -4.5186   -1.7813 H         1 <0>         0.0910
     53 H13        -1.6534   -6.0053   -0.8077 H         1 <0>         0.0394
     54 H14        -2.4104   -4.5047   -0.2217 H         1 <0>         0.0473
     55 H15         1.8526   -4.8550   -0.3154 H         1 <0>         0.0484
     56 H16         0.8360   -6.2099   -0.8624 H         1 <0>         0.0418
     57 H17         0.9368   -4.7232   -1.8360 H         1 <0>         0.0873
     58 H18        -1.1358    1.0622   -4.4711 H         1 <0>         0.0887
     59 H19        -2.5528    0.2931   -5.2325 H         1 <0>         0.0830
     60 H20        -0.6656   -1.6933   -7.7144 H         1 <0>         0.0708
     61 H21        -1.4140   -2.2395   -6.1946 H         1 <0>         0.0830
     62 H22        -3.3190   -0.7079   -6.5721 H         1 <0>         0.0784
     63 H23        -2.5668   -0.1339   -8.0798 H         1 <0>         0.0735
     64 H24        -2.4489   -1.5717  -10.0351 H         1 <0>         0.1186
     65 H25        -3.4603   -3.4553  -11.2567 H         1 <0>         0.1157
     66 H26        -4.8748   -5.0794  -10.0631 H         1 <0>         0.1151
     67 H27        -5.2772   -4.8203   -7.6477 H         1 <0>         0.1193
     68 H28        -4.2589   -2.9415   -6.4244 H         1 <0>         0.1263
     69 H29        -1.5593    1.2614   -7.4227 H         1 <0>         0.0811
     70 H30         1.0642    1.8822   -5.9915 H         1 <0>         0.0658
     71 H31         0.1393    3.0183   -7.0024 H         1 <0>         0.0481
     72 H32        -0.5522    2.4198   -5.4753 H         1 <0>         0.0576
     73 H33         1.3040    0.3408   -7.9431 H         1 <0>         0.0663
     74 H34        -0.1416   -0.2198   -8.8173 H         1 <0>         0.0538
     75 H35         0.3790    1.4769   -8.9541 H         1 <0>         0.0471
@<TRIPOS>BOND
     1    1    2 1
     2    1   41 1
     3    1   42 1
     4    1   43 1
     5    2    7 ar
     6    2    3 ar
     7    3    4 ar
     8    3   44 1
     9    4    5 ar
    10    4   21 1
    11    5    6 ar
    12    5   17 1
    13    6    7 ar
    14    6   45 1
    15    7    8 1
    16    8    9 1
    17    9   10 2
    18    9   11 2
    19    9   12 1
    20   12   16 1
    21   12   13 2
    22   13   14 1
    23   13   46 1
    24   14   15 2
    25   14   47 1
    26   15   16 1
    27   15   48 1
    28   17   18 1
    29   17   19 1
    30   17   20 1
    31   18   49 1
    32   18   50 1
    33   18   51 1
    34   19   52 1
    35   19   53 1
    36   19   54 1
    37   20   55 1
    38   20   56 1
    39   20   57 1
    40   21   22 1
    41   22   27 1
    42   22   23 2
    43   23   24 1
    44   23   40 1
    45   24   25 1
    46   25   26 1
    47   25   29 1
    48   25   37 1
    49   26   27 1
    50   26   58 1
    51   26   59 1
    52   27   28 2
    53   29   30 1
    54   29   60 1
    55   29   61 1
    56   30   31 1
    57   30   62 1
    58   30   63 1
    59   31   36 ar
    60   31   32 ar
    61   32   33 ar
    62   32   64 1
    63   33   34 ar
    64   33   65 1
    65   34   35 ar
    66   34   66 1
    67   35   36 ar
    68   35   67 1
    69   36   68 1
    70   37   38 1
    71   37   39 1
    72   37   69 1
    73   38   70 1
    74   38   71 1
    75   38   72 1
    76   39   73 1
    77   39   74 1
    78   39   75 1
