@<TRIPOS>MOLECULE
CHEMBL142282
   59    62     0     0     0
SMALL
USER_CHARGES

@<TRIPOS>ATOM
      1 C1          2.1529    1.5372    1.4810 C.3       1 <0>        -0.1534
      2 C2          2.1624    0.0072    1.4764 C.3       1 <0>        -0.1250
      3 C3          0.7421   -0.5109    1.2415 C.3       1 <0>        -0.1519
      4 C4          0.7707   -2.0348    1.1077 C.3       1 <0>         0.1444
      5 C5         -0.6516   -2.5536    0.8656 C.3       1 <0>        -0.2047
      6 C6         -1.1135   -2.0659   -0.4928 C.2       1 <0>         0.3693
      7 O1         -2.1736   -1.5048   -0.6324 O.2       1 <0>        -0.4201
      8 C7         -0.1881   -2.3115   -1.6705 C.3       1 <0>        -0.1760
      9 C8          1.2152   -1.9667   -1.2121 C.2       1 <0>         0.5016
     10 O2          1.6047   -2.4014    0.0040 O.3       1 <0>        -0.3528
     11 O3          1.9604   -1.3239   -1.9132 O.2       1 <0>        -0.4243
     12 C9         -0.2541   -3.7819   -2.0882 C.3       1 <0>         0.0109
     13 C10         0.6679   -4.0138   -3.2574 C.ar      1 <0>        -0.0857
     14 C11         0.4774   -3.3180   -4.4365 C.ar      1 <0>        -0.1007
     15 C12         1.3232   -3.5307   -5.5090 C.ar      1 <0>        -0.1156
     16 C13         2.3598   -4.4390   -5.4022 C.ar      1 <0>        -0.1155
     17 C14         2.5509   -5.1342   -4.2228 C.ar      1 <0>        -0.1168
     18 C15         1.7077   -4.9183   -3.1488 C.ar      1 <0>        -0.1095
     19 C16        -1.6875   -4.1337   -2.4915 C.3       1 <0>        -0.1587
     20 C17        -2.4635   -5.0878   -1.5813 C.3       1 <0>        -0.1771
     21 C18        -1.9619   -5.5692   -2.9442 C.3       1 <0>        -0.1622
     22 C19         1.3265   -2.6497    2.3937 C.3       1 <0>        -0.1009
     23 C20         1.3550   -4.1735    2.2595 C.3       1 <0>        -0.0846
     24 C21         1.9025   -4.7792    3.5262 C.ar      1 <0>        -0.0835
     25 C22         3.2620   -4.9914    3.6594 C.ar      1 <0>        -0.1153
     26 C23         3.7642   -5.5469    4.8213 C.ar      1 <0>        -0.1176
     27 C24         2.9070   -5.8899    5.8502 C.ar      1 <0>        -0.1235
     28 C25         1.5477   -5.6768    5.7173 C.ar      1 <0>        -0.1183
     29 C26         1.0459   -5.1173    4.5571 C.ar      1 <0>        -0.1183
     30 H1          1.4997    1.8941    2.2772 H         1 <0>         0.0549
     31 H2          3.1648    1.9063    1.6483 H         1 <0>         0.0587
     32 H3          1.7876    1.9011    0.5207 H         1 <0>         0.0529
     33 H4          2.8156   -0.3497    0.6801 H         1 <0>         0.0728
     34 H5          2.5278   -0.3568    2.4367 H         1 <0>         0.0711
     35 H6          0.1096   -0.2320    2.0843 H         1 <0>         0.0910
     36 H7          0.3423   -0.0733    0.3268 H         1 <0>         0.0636
     37 H8         -0.6529   -3.6435    0.8843 H         1 <0>         0.1219
     38 H9         -1.3182   -2.1719    1.6389 H         1 <0>         0.1176
     39 H10         0.0531   -4.4110   -1.2528 H         1 <0>         0.0940
     40 H11        -0.3324   -2.6084   -4.5200 H         1 <0>         0.1193
     41 H12         1.1740   -2.9876   -6.4305 H         1 <0>         0.1231
     42 H13         3.0202   -4.6057   -6.2404 H         1 <0>         0.1224
     43 H14         3.3606   -5.8440   -4.1394 H         1 <0>         0.1232
     44 H15         1.8592   -5.4587   -2.2261 H         1 <0>         0.1209
     45 H16        -2.2477   -3.3362   -2.9797 H         1 <0>         0.1118
     46 H17        -1.9529   -5.4648   -0.6952 H         1 <0>         0.0951
     47 H18        -3.5345   -4.9180   -1.4704 H         1 <0>         0.0983
     48 H19        -2.7029   -5.7162   -3.7300 H         1 <0>         0.0976
     49 H20        -1.1212   -6.2630   -2.9547 H         1 <0>         0.0973
     50 H21         2.3379   -2.2810    2.5651 H         1 <0>         0.0893
     51 H22         0.6909   -2.3707    3.2341 H         1 <0>         0.0922
     52 H23         0.3437   -4.5421    2.0881 H         1 <0>         0.0746
     53 H24         1.9907   -4.4524    1.4191 H         1 <0>         0.0839
     54 H25         3.9317   -4.7235    2.8556 H         1 <0>         0.1222
     55 H26         4.8262   -5.7134    4.9251 H         1 <0>         0.1216
     56 H27         3.2993   -6.3246    6.7577 H         1 <0>         0.1208
     57 H28         0.8779   -5.9450    6.5210 H         1 <0>         0.1214
     58 H29        -0.0157   -4.9474    4.4548 H         1 <0>         0.1208
     59 H30        -0.4734   -1.6733   -2.5068 H         1 <0>         0.1316
@<TRIPOS>BOND
     1    1    2 1
     2    1   30 1
     3    1   31 1
     4    1   32 1
     5    2    3 1
     6    2   33 1
     7    2   34 1
     8    3    4 1
     9    3   35 1
    10    3   36 1
    11    4   10 1
    12    4    5 1
    13    4   22 1
    14    5    6 1
    15    5   37 1
    16    5   38 1
    17    6    7 2
    18    6    8 1
    19    8    9 1
    20    8   12 1
    21    8   59 1
    22    9   10 1
    23    9   11 2
    24   12   13 1
    25   12   19 1
    26   12   39 1
    27   13   18 ar
    28   13   14 ar
    29   14   15 ar
    30   14   40 1
    31   15   16 ar
    32   15   41 1
    33   16   17 ar
    34   16   42 1
    35   17   18 ar
    36   17   43 1
    37   18   44 1
    38   19   21 1
    39   19   20 1
    40   19   45 1
    41   20   21 1
    42   20   46 1
    43   20   47 1
    44   21   48 1
    45   21   49 1
    46   22   23 1
    47   22   50 1
    48   22   51 1
    49   23   24 1
    50   23   52 1
    51   23   53 1
    52   24   29 ar
    53   24   25 ar
    54   25   26 ar
    55   25   54 1
    56   26   27 ar
    57   26   55 1
    58   27   28 ar
    59   27   56 1
    60   28   29 ar
    61   28   57 1
    62   29   58 1
