@<TRIPOS>MOLECULE
CHEMBL446395
   79    84     0     0     0
SMALL
USER_CHARGES

@<TRIPOS>ATOM
      1 C1          0.3395    1.7149   -0.4512 C.ar      1 <0>        -0.1197
      2 C2          1.4758    2.4694   -0.2264 C.ar      1 <0>        -0.1154
      3 C3          2.7192    1.8654   -0.2338 C.ar      1 <0>        -0.1150
      4 C4          2.8263    0.5068   -0.4655 C.ar      1 <0>        -0.0889
      5 C5          1.6900   -0.2479   -0.6894 C.ar      1 <0>        -0.1180
      6 C6          0.4467    0.3564   -0.6834 C.ar      1 <0>        -0.1171
      7 C7          4.1819   -0.1515   -0.4745 C.3       1 <0>        -0.0758
      8 C8          4.5285   -0.6246    0.9386 C.3       1 <0>        -0.1310
      9 C9          5.8459   -1.4020    0.9074 C.3       1 <0>         0.1549
     10 H1          5.7765   -2.2071    0.1759 H         1 <0>         0.0925
     11 C10         6.1253   -1.9922    2.2937 C.3       1 <0>         0.0877
     12 H2          5.2771   -2.5988    2.6110 H         1 <0>         0.0879
     13 C11         6.3317   -0.8394    3.2821 C.3       1 <0>         0.1175
     14 H3          5.4076   -0.2690    3.3746 H         1 <0>         0.0852
     15 N1          7.3976    0.0330    2.7866 N.am      1 <0>        -0.6011
     16 C12         7.6393    0.1625    1.4736 C.2       1 <0>         0.7234
     17 O1          8.5299    0.9085    1.1147 O.2       1 <0>        -0.5888
     18 N2          6.9379   -0.4993    0.5393 N.am      1 <0>        -0.6065
     19 C13         7.2709   -0.3154   -0.8755 C.3       1 <0>         0.1607
     20 C14         8.2267   -1.3960   -1.3112 C.ar      1 <0>        -0.1247
     21 C15         9.5951   -1.2208   -1.0961 C.ar      1 <0>         0.0332
     22 C16        10.5026   -2.1587   -1.4670 C.ar      1 <0>        -0.1569
     23 C17        10.0617   -3.3479   -2.0875 C.ar      1 <0>         0.2358
     24 C18         8.6195   -3.5302   -2.3125 C.ar      1 <0>        -0.2340
     25 C19         7.7343   -2.5175   -1.8979 C.ar      1 <0>         0.0105
     26 C20         8.4735   -4.7699   -2.9297 C.2       1 <0>         0.5269
     27 N3          9.6990   -5.3012   -3.0725 N.pl3     1 <0>        -0.4376
     28 N4         10.6617   -4.4269   -2.5560 N.pl3     1 <0>        -0.4248
     29 H4          9.8885   -6.1636   -3.4739 H         1 <0>         0.4680
     30 N5          7.2789   -5.3512   -3.3251 N.pl3     1 <0>        -0.7859
     31 C21         8.2167    0.7802    3.7442 C.3       1 <0>         0.1666
     32 C22         9.4854    0.0164    4.0236 C.ar      1 <0>        -0.0574
     33 C23         9.5643   -0.8111    5.1290 C.ar      1 <0>        -0.1731
     34 C24        10.7265   -1.5133    5.3892 C.ar      1 <0>        -0.0759
     35 C25        11.8130   -1.3908    4.5452 C.ar      1 <0>        -0.1951
     36 C26        11.7370   -0.5611    3.4339 C.ar      1 <0>         0.2099
     37 C27        10.5658    0.1391    3.1725 C.ar      1 <0>        -0.1654
     38 N6         12.8338   -0.4349    2.5783 N.pl3     1 <0>        -0.8807
     39 C28         6.7242   -1.4024    4.6495 C.3       1 <0>        -0.0992
     40 C29         5.5772   -2.2022    5.2115 C.ar      1 <0>        -0.0900
     41 C30         4.5516   -1.5624    5.8822 C.ar      1 <0>        -0.1118
     42 C31         3.4995   -2.2960    6.3977 C.ar      1 <0>        -0.1117
     43 C32         3.4726   -3.6693    6.2421 C.ar      1 <0>        -0.1168
     44 C33         4.4977   -4.3090    5.5705 C.ar      1 <0>        -0.1146
     45 C34         5.5477   -3.5749    5.0513 C.ar      1 <0>        -0.1200
     46 O2          7.3018   -2.8016    2.2425 O.3       1 <0>        -0.5484
     47 H5         -0.6323    2.1859   -0.4410 H         1 <0>         0.1229
     48 H6          1.3921    3.5308   -0.0454 H         1 <0>         0.1230
     49 H7          3.6069    2.4550   -0.0589 H         1 <0>         0.1196
     50 H8          1.7737   -1.3092   -0.8708 H         1 <0>         0.1188
     51 H9         -0.4411   -0.2332   -0.8587 H         1 <0>         0.1223
     52 H10         4.1661   -1.0065   -1.1503 H         1 <0>         0.0702
     53 H11         4.9312    0.5646   -0.8120 H         1 <0>         0.0775
     54 H12         4.6316    0.2389    1.5958 H         1 <0>         0.0757
     55 H13         3.7337   -1.2713    1.3104 H         1 <0>         0.0814
     56 H14         6.3612   -0.3723   -1.4732 H         1 <0>         0.0941
     57 H15         7.7370    0.6600   -1.0152 H         1 <0>         0.1092
     58 H16         9.9406   -0.3139   -0.6221 H         1 <0>         0.1575
     59 H17        11.5554   -1.9966   -1.2890 H         1 <0>         0.1515
     60 H18         6.6709   -2.6298   -2.0489 H         1 <0>         0.1421
     61 H19         6.4408   -4.8858   -3.1773 H         1 <0>         0.4446
     62 H20         7.2810   -6.2234   -3.7495 H         1 <0>         0.4276
     63 H21         8.4646    1.7560    3.3265 H         1 <0>         0.0942
     64 H22         7.6606    0.9128    4.6722 H         1 <0>         0.0881
     65 H23         8.7162   -0.9086    5.7906 H         1 <0>         0.1194
     66 H24        10.7850   -2.1581    6.2537 H         1 <0>         0.1188
     67 H25        12.7206   -1.9394    4.7492 H         1 <0>         0.1152
     68 H26        10.5020    0.7820    2.3071 H         1 <0>         0.1313
     69 H27        13.6497   -0.9271    2.7599 H         1 <0>         0.3966
     70 H28        12.7795    0.1449    1.8026 H         1 <0>         0.3968
     71 H29         7.5970   -2.0462    4.5405 H         1 <0>         0.0890
     72 H30         6.9606   -0.5813    5.3263 H         1 <0>         0.0925
     73 H31         4.5726   -0.4895    6.0039 H         1 <0>         0.1228
     74 H32         2.6986   -1.7962    6.9224 H         1 <0>         0.1250
     75 H33         2.6510   -4.2425    6.6454 H         1 <0>         0.1239
     76 H34         4.4769   -5.3819    5.4492 H         1 <0>         0.1227
     77 H35         6.3467   -4.0742    4.5234 H         1 <0>         0.1157
     78 H36         7.5373   -3.2072    3.0881 H         1 <0>         0.3781
     79 H37        11.6182   -4.5879   -2.5440 H         1 <0>         0.4718
@<TRIPOS>BOND
     1    1    6 ar
     2    1    2 ar
     3    1   47 1
     4    2    3 ar
     5    2   48 1
     6    3    4 ar
     7    3   49 1
     8    4    5 ar
     9    4    7 1
    10    5    6 ar
    11    5   50 1
    12    6   51 1
    13    7    8 1
    14    7   52 1
    15    7   53 1
    16    8    9 1
    17    8   54 1
    18    8   55 1
    19    9   10 1
    20    9   18 1
    21    9   11 1
    22   11   12 1
    23   11   13 1
    24   11   46 1
    25   13   14 1
    26   13   15 1
    27   13   39 1
    28   15   16 am
    29   15   31 1
    30   16   17 2
    31   16   18 am
    32   18   19 1
    33   19   20 1
    34   19   56 1
    35   19   57 1
    36   20   25 ar
    37   20   21 ar
    38   21   22 ar
    39   21   58 1
    40   22   23 ar
    41   22   59 1
    42   23   24 ar
    43   23   28 2
    44   24   25 ar
    45   24   26 2
    46   25   60 1
    47   26   30 1
    48   26   27 1
    49   27   29 1
    50   27   28 1
    51   28   79 1
    52   30   61 1
    53   30   62 1
    54   31   32 1
    55   31   63 1
    56   31   64 1
    57   32   37 ar
    58   32   33 ar
    59   33   34 ar
    60   33   65 1
    61   34   35 ar
    62   34   66 1
    63   35   36 ar
    64   35   67 1
    65   36   37 ar
    66   36   38 1
    67   37   68 1
    68   38   69 1
    69   38   70 1
    70   39   40 1
    71   39   71 1
    72   39   72 1
    73   40   45 ar
    74   40   41 ar
    75   41   42 ar
    76   41   73 1
    77   42   43 ar
    78   42   74 1
    79   43   44 ar
    80   43   75 1
    81   44   45 ar
    82   44   76 1
    83   45   77 1
    84   46   78 1
