@<TRIPOS>MOLECULE
ZINC39422190
   54    57     0     0     0
SMALL
USER_CHARGES

@<TRIPOS>ATOM
      1 C1         -2.3324   -1.2956    0.7031 C.3       1 <0>        -0.0766
      2 C2         -0.8678   -1.3120    0.3484 C.2       1 <0>         0.1103
      3 N1         -0.3513   -1.7927   -0.7534 N.2       1 <0>        -0.3792
      4 N2          1.0376   -1.6194   -0.7013 N.pl3     1 <0>        -0.5470
      5 C3          1.3381   -1.0175    0.4706 C.2       1 <0>         0.4399
      6 C4          0.1717   -0.8106    1.1377 C.2       1 <0>        -0.4210
      7 C5          0.0255   -0.1596    2.4889 C.3       1 <0>         0.1305
      8 H1         -0.2198    0.8946    2.3597 H         1 <0>         0.0657
      9 C6         -1.0766   -0.8411    3.2583 C.ar      1 <0>        -0.0365
     10 C7         -1.0215   -2.2046    3.4804 C.ar      1 <0>        -0.0986
     11 C8         -2.0300   -2.8344    4.1856 C.ar      1 <0>        -0.1700
     12 C9         -3.0990   -2.0990    4.6718 C.ar      1 <0>         0.0852
     13 C10        -3.1542   -0.7266    4.4486 C.ar      1 <0>         0.1011
     14 C11        -2.1376   -0.1007    3.7452 C.ar      1 <0>        -0.1727
     15 O1         -4.2013   -0.0004    4.9239 O.3       1 <0>        -0.3101
     16 C12        -4.1916    1.4034    4.6570 C.3       1 <0>         0.0264
     17 O2         -4.0922   -2.7171    5.3653 O.3       1 <0>        -0.3032
     18 C13        -3.9694   -4.1280    5.5558 C.3       1 <0>         0.0987
     19 C14        -5.1530   -4.6341    6.3394 C.ar      1 <0>        -0.0712
     20 C15        -6.1402   -3.7553    6.7447 C.ar      1 <0>        -0.0695
     21 C16        -7.2259   -4.2186    7.4634 C.ar      1 <0>        -0.1043
     22 C17        -7.3257   -5.5627    7.7773 C.ar      1 <0>        -0.0260
     23 C18        -6.3385   -6.4424    7.3717 C.ar      1 <0>        -0.1018
     24 C19        -5.2542   -5.9788    6.6481 C.ar      1 <0>        -0.0212
     25 Cl1        -4.0177   -7.0832    6.1333 Cl        1 <0>        -0.0512
     26 Cl2        -8.6893   -6.1444    8.6805 Cl        1 <0>        -0.0598
     27 C20         1.3205   -0.2845    3.2495 C.2       1 <0>        -0.0049
     28 C21         2.1604    0.6887    3.6088 C.2       1 <0>        -0.0766
     29 N3          3.2189    0.1853    4.2815 N.2       1 <0>        -0.1261
     30 N4          3.1986   -1.0396    4.4254 N.2       1 <0>        -0.2205
     31 C22         1.9697   -1.5459    3.7908 C.3       1 <0>         0.1686
     32 H2          1.3241   -2.0269    4.5256 H         1 <0>         0.1049
     33 O3          2.2871   -2.4470    2.7281 O.3       1 <0>        -0.4749
     34 C23         1.9560    2.1507    3.3056 C.3       1 <0>        -0.0687
     35 O4          2.5794   -0.6761    0.9014 O.3       1 <0>        -0.7067
     36 H3         -2.7622   -0.3326    0.4274 H         1 <0>         0.0559
     37 H4         -2.8460   -2.0908    0.1627 H         1 <0>         0.0517
     38 H5         -2.4482   -1.4516    1.7756 H         1 <0>         0.0736
     39 H6         -0.1889   -2.7789    3.1019 H         1 <0>         0.1333
     40 H7         -1.9850   -3.8997    4.3571 H         1 <0>         0.1303
     41 H8         -2.1762    0.9650    3.5738 H         1 <0>         0.1347
     42 H9         -4.1858    1.5683    3.5795 H         1 <0>         0.0558
     43 H10        -5.0807    1.8617    5.0900 H         1 <0>         0.0959
     44 H11        -3.3008    1.8509    5.0978 H         1 <0>         0.0538
     45 H12        -3.9369   -4.6241    4.5858 H         1 <0>         0.0837
     46 H13        -3.0521   -4.3422    6.1043 H         1 <0>         0.0821
     47 H14        -6.0628   -2.7063    6.4999 H         1 <0>         0.1564
     48 H15        -7.9965   -3.5315    7.7803 H         1 <0>         0.1422
     49 H16        -6.4159   -7.4914    7.6165 H         1 <0>         0.1460
     50 H17         2.7040   -3.2690    3.0206 H         1 <0>         0.3622
     51 H18         1.3975    2.6156    4.1180 H         1 <0>         0.0617
     52 H19         2.9249    2.6396    3.2043 H         1 <0>         0.0689
     53 H20         1.3977    2.2541    2.3752 H         1 <0>         0.0719
     54 H21         1.6718   -1.8851   -1.3855 H         1 <0>         0.4071
@<TRIPOS>BOND
     1    1    2 1
     2    1   36 1
     3    1   37 1
     4    1   38 1
     5    2    6 1
     6    2    3 2
     7    3    4 1
     8    4    5 1
     9    4   54 1
    10    5   35 1
    11    5    6 2
    12    6    7 1
    13    7    8 1
    14    7    9 1
    15    7   27 1
    16    9   14 ar
    17    9   10 ar
    18   10   11 ar
    19   10   39 1
    20   11   12 ar
    21   11   40 1
    22   12   13 ar
    23   12   17 1
    24   13   14 ar
    25   13   15 1
    26   14   41 1
    27   15   16 1
    28   16   42 1
    29   16   43 1
    30   16   44 1
    31   17   18 1
    32   18   19 1
    33   18   45 1
    34   18   46 1
    35   19   24 ar
    36   19   20 ar
    37   20   21 ar
    38   20   47 1
    39   21   22 ar
    40   21   48 1
    41   22   23 ar
    42   22   26 1
    43   23   24 ar
    44   23   49 1
    45   24   25 1
    46   27   31 1
    47   27   28 2
    48   28   29 1
    49   28   34 1
    50   29   30 2
    51   30   31 1
    52   31   32 1
    53   31   33 1
    54   33   50 1
    55   34   51 1
    56   34   52 1
    57   34   53 1
