@<TRIPOS>MOLECULE
ZINC59829898
   61    63     0     0     0
SMALL
USER_CHARGES

@<TRIPOS>ATOM
      1 C1         -0.0764    1.5029    0.0116 C.3       1 <0>        -0.0767
      2 C2         -0.0572   -0.0039    0.0035 C.2       1 <0>         0.1211
      3 C3         -0.0430   -0.8259   -1.1437 C.2       1 <0>        -0.2097
      4 C4         -0.0269   -2.1337   -0.7101 C.2       1 <0>         0.1235
      5 N1         -0.0310   -2.1113    0.6382 N.pl3     1 <0>        -0.3566
      6 N2         -0.0450   -0.7758    1.0567 N.2       1 <0>        -0.2975
      7 C5         -0.0180   -3.2846    1.5154 C.3       1 <0>         0.1591
      8 C6          1.4072   -3.6681    1.8202 C.2       1 <0>        -0.1884
      9 C7          1.8057   -3.7726    3.0637 C.2       1 <0>        -0.1511
     10 C8         -0.0085   -3.3627   -1.5820 C.3       1 <0>        -0.0983
     11 C9         -0.0450   -0.3694   -2.5475 C.2       1 <0>         0.1537
     12 N3         -0.0606    0.8999   -2.8170 N.2       1 <0>        -0.2186
     13 N4         -0.0626    1.3332   -4.1493 N.pl3     1 <0>        -0.5480
     14 C10        -0.0793    2.6901   -4.4373 C.2       1 <0>         0.5338
     15 N5         -0.0885    3.6642   -3.5598 N.2       1 <0>        -0.3195
     16 N6         -0.1045    4.8775   -4.2601 N.2       1 <0>        -0.2934
     17 C11        -0.1046    4.6051   -5.5430 C.2       1 <0>         0.1507
     18 N7         -0.0830    3.2466   -5.6862 N.pl3     1 <0>        -0.3480
     19 N8         -0.0710    2.5641   -6.8694 N.3       1 <0>        -0.5943
     20 S1         -0.1223    5.7844   -6.8520 S.3       1 <0>         0.0707
     21 C12        -0.1388    7.3857   -6.0000 C.3       1 <0>        -0.1409
     22 C13        -0.1548    8.4965   -7.0183 C.2       1 <0>         0.5381
     23 O1         -0.1552    8.2337   -8.2024 O.2       1 <0>        -0.4954
     24 N9         -0.1689    9.7819   -6.6133 N.am      1 <0>        -0.6617
     25 C14        -0.0863   10.8131   -7.5553 C.ar      1 <0>         0.2187
     26 C15         0.6034   11.9785   -7.2504 C.ar      1 <0>        -0.2112
     27 C16         0.6848   13.0000   -8.1843 C.ar      1 <0>         0.1848
     28 C17         0.0769   12.8578   -9.4227 C.ar      1 <0>        -0.3082
     29 C18        -0.6123   11.6937   -9.7280 C.ar      1 <0>         0.1845
     30 C19        -0.6893   10.6689   -8.7973 C.ar      1 <0>        -0.1884
     31 O2         -1.2081   11.5554  -10.9416 O.3       1 <0>        -0.3092
     32 C20        -1.0840   12.6485  -11.8536 C.3       1 <0>         0.0258
     33 O3          1.3600   14.1410   -7.8860 O.3       1 <0>        -0.3114
     34 C21         1.4035   15.1518   -8.8951 C.3       1 <0>         0.0262
     35 H1          0.9465    1.8794    0.0117 H         1 <0>         0.0781
     36 H2         -0.5965    1.8644   -0.8756 H         1 <0>         0.0999
     37 H3         -0.5932    1.8549    0.9044 H         1 <0>         0.0680
     38 H4         -0.5376   -3.0496    2.4443 H         1 <0>         0.1025
     39 H5         -0.5194   -4.1152    1.0186 H         1 <0>         0.1035
     40 H6          2.1000   -3.8567    1.0135 H         1 <0>         0.1148
     41 H7          1.1129   -3.5840    3.8705 H         1 <0>         0.1029
     42 H8          2.8271   -4.0475    3.2822 H         1 <0>         0.1062
     43 H9          1.0235   -3.6458   -1.7893 H         1 <0>         0.0872
     44 H10        -0.5133   -4.1806   -1.0678 H         1 <0>         0.0769
     45 H11        -0.5224   -3.1507   -2.5196 H         1 <0>         0.0883
     46 H12        -0.0336   -1.0917   -3.3503 H         1 <0>         0.1174
     47 H13        -0.0523    0.6845   -4.8703 H         1 <0>         0.4001
     48 H14        -1.0098    2.3713   -7.1852 H         1 <0>         0.3625
     49 H15         0.4506    3.0669   -7.5717 H         1 <0>         0.3789
     50 H16        -1.0278    7.4546   -5.3731 H         1 <0>         0.1344
     51 H17         0.7520    7.4756   -5.3783 H         1 <0>         0.1350
     52 H18        -0.2362    9.9920   -5.6687 H         1 <0>         0.4200
     53 H19         1.0763   12.0897   -6.2858 H         1 <0>         0.1383
     54 H20         0.1400   13.6541  -10.1496 H         1 <0>         0.1367
     55 H21        -1.2220    9.7605   -9.0370 H         1 <0>         0.1503
     56 H22        -1.5241   13.5423  -11.4114 H         1 <0>         0.0564
     57 H23        -0.0297   12.8285  -12.0637 H         1 <0>         0.0564
     58 H24        -1.6035   12.4085  -12.7812 H         1 <0>         0.1036
     59 H25         1.8834   14.7527   -9.7887 H         1 <0>         0.0567
     60 H26         0.3886   15.4670   -9.1377 H         1 <0>         0.0568
     61 H27         1.9717   16.0068   -8.5287 H         1 <0>         0.1038
@<TRIPOS>BOND
     1    1    2 1
     2    1   35 1
     3    1   36 1
     4    1   37 1
     5    2    6 2
     6    2    3 1
     7    3    4 2
     8    3   11 1
     9    4    5 1
    10    4   10 1
    11    5    6 1
    12    5    7 1
    13    7    8 1
    14    7   38 1
    15    7   39 1
    16    8    9 2
    17    8   40 1
    18    9   41 1
    19    9   42 1
    20   10   43 1
    21   10   44 1
    22   10   45 1
    23   11   12 2
    24   11   46 1
    25   12   13 1
    26   13   14 1
    27   13   47 1
    28   14   18 1
    29   14   15 2
    30   15   16 1
    31   16   17 2
    32   17   18 1
    33   17   20 1
    34   18   19 1
    35   19   48 1
    36   19   49 1
    37   20   21 1
    38   21   22 1
    39   21   50 1
    40   21   51 1
    41   22   23 2
    42   22   24 am
    43   24   25 1
    44   24   52 1
    45   25   30 ar
    46   25   26 ar
    47   26   27 ar
    48   26   53 1
    49   27   28 ar
    50   27   33 1
    51   28   29 ar
    52   28   54 1
    53   29   30 ar
    54   29   31 1
    55   30   55 1
    56   31   32 1
    57   32   56 1
    58   32   57 1
    59   32   58 1
    60   33   34 1
    61   34   59 1
    62   34   60 1
    63   34   61 1
