@<TRIPOS>MOLECULE
ZINC41120691
   53    57     0     0     0
SMALL
USER_CHARGES

@<TRIPOS>ATOM
      1 C1         -0.1235    1.4302    2.1002 C.ar      1 <0>        -0.1579
      2 C2          1.0313    2.1496    1.8534 C.ar      1 <0>        -0.0816
      3 C3          2.1859    1.4947    1.4708 C.ar      1 <0>        -0.1510
      4 C4          2.1862    0.1141    1.3346 C.ar      1 <0>         0.1298
      5 C5          1.0264   -0.6054    1.5832 C.ar      1 <0>        -0.2067
      6 C6         -0.1257    0.0542    1.9651 C.ar      1 <0>        -0.0791
      7 O1          3.3207   -0.5324    0.9579 O.3       1 <0>        -0.3116
      8 C7          3.2476   -1.9545    0.8379 C.3       1 <0>         0.0435
      9 C8          4.6105   -2.5008    0.4079 C.3       1 <0>         0.1095
     10 N1          4.5356   -3.9587    0.2849 N.pl3     1 <0>        -0.4644
     11 C9          4.8777   -4.8324    1.2601 C.2       1 <0>         0.0931
     12 C10         4.6852   -6.1242    0.8092 C.2       1 <0>        -0.1718
     13 C11         4.1778   -6.0067   -0.5726 C.ar      1 <0>        -0.0726
     14 C12         4.1007   -4.6309   -0.8398 C.ar      1 <0>         0.0866
     15 C13         3.6435   -4.2030   -2.0819 C.ar      1 <0>        -0.1256
     16 C14         3.2686   -5.1273   -3.0331 C.ar      1 <0>        -0.1017
     17 C15         3.3417   -6.4860   -2.7653 C.ar      1 <0>        -0.1383
     18 C16         3.8009   -6.9296   -1.5434 C.ar      1 <0>        -0.0692
     19 C17         4.9259   -7.3180    1.5262 C.2       1 <0>         0.0657
     20 C18         5.7234   -7.2970    2.6579 C.2       1 <0>        -0.0741
     21 C19         6.4259   -6.1019    3.0167 C.1       1 <0>         0.2906
     22 N2          6.9832   -5.1538    3.3014 N.1       1 <0>        -0.4534
     23 C20         5.8485   -8.4985    3.4890 C.2       1 <0>         0.4741
     24 O2          5.1854   -9.6266    3.1503 O.3       1 <0>        -0.6259
     25 N3          6.6079   -8.4785    4.5666 N.2       1 <0>        -0.6169
     26 C21         6.7231   -9.5844    5.3315 C.2       1 <0>         0.4489
     27 N4          6.1653  -10.7693    5.1639 N.2       1 <0>        -0.5767
     28 C22         6.3737  -11.7921    6.0176 C.ar      1 <0>         0.1504
     29 C23         5.8419  -13.1020    5.9559 C.ar      1 <0>        -0.1128
     30 C24         6.1562  -14.0309    6.9130 C.ar      1 <0>        -0.1031
     31 C25         7.0009  -13.7251    7.9705 C.ar      1 <0>        -0.1620
     32 C26         7.5391  -12.4542    8.0624 C.ar      1 <0>        -0.0484
     33 C27         7.2304  -11.5169    7.1089 C.ar      1 <0>        -0.1893
     34 S1          7.6758   -9.8204    6.8251 S.3       1 <0>        -0.1011
     35 H1         -1.0240    1.9437    2.4033 H         1 <0>         0.1241
     36 H2          1.0305    3.2243    1.9596 H         1 <0>         0.1297
     37 H3          3.0874    2.0571    1.2774 H         1 <0>         0.1312
     38 H4          1.0241   -1.6802    1.4776 H         1 <0>         0.1276
     39 H5         -1.0289   -0.5055    2.1588 H         1 <0>         0.1258
     40 H6          2.9699   -2.3865    1.7993 H         1 <0>         0.0723
     41 H7          2.4985   -2.2181    0.0912 H         1 <0>         0.0718
     42 H8          4.8883   -2.0688   -0.5535 H         1 <0>         0.1029
     43 H9          5.3596   -2.2372    1.1546 H         1 <0>         0.1075
     44 H10         5.2444   -4.5619    2.2392 H         1 <0>         0.1824
     45 H11         3.5819   -3.1472   -2.3007 H         1 <0>         0.1180
     46 H12         2.9143   -4.7903   -3.9961 H         1 <0>         0.1250
     47 H13         3.0441   -7.1996   -3.5194 H         1 <0>         0.1255
     48 H14         3.8562   -7.9881   -1.3364 H         1 <0>         0.1310
     49 H15         4.4879   -8.2467    1.1915 H         1 <0>         0.1574
     50 H16         5.1808  -13.3725    5.1458 H         1 <0>         0.1192
     51 H17         5.7366  -15.0235    6.8429 H         1 <0>         0.1161
     52 H18         7.2356  -14.4719    8.7145 H         1 <0>         0.1202
     53 H19         8.1979  -12.2010    8.8799 H         1 <0>         0.1158
@<TRIPOS>BOND
     1    1    6 ar
     2    1    2 ar
     3    1   35 1
     4    2    3 ar
     5    2   36 1
     6    3    4 ar
     7    3   37 1
     8    4    5 ar
     9    4    7 1
    10    5    6 ar
    11    5   38 1
    12    6   39 1
    13    7    8 1
    14    8    9 1
    15    8   40 1
    16    8   41 1
    17    9   10 1
    18    9   42 1
    19    9   43 1
    20   10   14 1
    21   10   11 1
    22   11   12 2
    23   11   44 1
    24   12   13 1
    25   12   19 1
    26   13   18 ar
    27   13   14 ar
    28   14   15 ar
    29   15   16 ar
    30   15   45 1
    31   16   17 ar
    32   16   46 1
    33   17   18 ar
    34   17   47 1
    35   18   48 1
    36   19   20 2
    37   19   49 1
    38   20   21 1
    39   20   23 1
    40   21   22 3
    41   23   24 1
    42   23   25 2
    43   25   26 1
    44   26   34 1
    45   26   27 2
    46   27   28 1
    47   28   33 ar
    48   28   29 ar
    49   29   30 ar
    50   29   50 1
    51   30   31 ar
    52   30   51 1
    53   31   32 ar
    54   31   52 1
    55   32   33 ar
    56   32   53 1
    57   33   34 1
