@<TRIPOS>MOLECULE
ZINC38537382
   23    24     0     0     0
SMALL
USER_CHARGES

@<TRIPOS>ATOM
      1 C1         -0.0184    1.5028    0.0103 C.3       1 <0>        -0.1013
      2 C2          0.0021   -0.0041    0.0020 C.ar      1 <0>        -0.0840
      3 C3          0.0058   -0.6814   -1.1803 C.ar      1 <0>        -0.0042
      4 C4          0.0251   -2.0748   -1.2096 C.ar      1 <0>        -0.1652
      5 C5          0.0403   -2.7969   -0.0547 C.ar      1 <0>        -0.0281
      6 C6          0.0370   -2.1312    1.1796 C.ar      1 <0>        -0.1762
      7 C7          0.0232   -0.7157    1.2133 C.ar      1 <0>         0.1879
      8 N1          0.0247   -0.0753    2.3879 N.ar      1 <0>        -0.5287
      9 C8          0.0439   -0.7267    3.5268 C.ar      1 <0>         0.1485
     10 C9          0.0638   -2.1159    3.5762 C.ar      1 <0>        -0.2877
     11 C10         0.0514   -2.8444    2.3997 C.ar      1 <0>         0.3400
     12 O1          0.0695   -4.2002    2.4167 O.3       1 <0>        -0.6348
     13 Br1         0.0916   -3.0064    5.2442 Br        1 <0>        -0.0607
     14 C11         0.0450    0.0525    4.8167 C.3       1 <0>         0.5154
     15 F1         -0.0912    1.4166    4.5376 F         1 <0>        -0.1700
     16 F2         -1.0226   -0.3686    5.6168 F         1 <0>        -0.1692
     17 F3          1.2497   -0.1672    5.4932 F         1 <0>        -0.1713
     18 Cl1        -0.0144    0.2046   -2.6730 Cl        1 <0>        -0.0826
     19 H1          1.0042    1.8801    0.0026 H         1 <0>         0.0669
     20 H2         -0.5455    1.8639   -0.8728 H         1 <0>         0.0630
     21 H3         -0.5286    1.8543    0.9071 H         1 <0>         0.0784
     22 H4          0.0277   -2.5883   -2.1597 H         1 <0>         0.1270
     23 H5          0.0545   -3.8763   -0.0894 H         1 <0>         0.1370
@<TRIPOS>BOND
     1    1    2 1
     2    1   19 1
     3    1   20 1
     4    1   21 1
     5    2    7 ar
     6    2    3 ar
     7    3    4 ar
     8    3   18 1
     9    4    5 ar
    10    4   22 1
    11    5    6 ar
    12    5   23 1
    13    6   11 ar
    14    6    7 ar
    15    7    8 ar
    16    8    9 ar
    17    9   10 ar
    18    9   14 1
    19   10   11 ar
    20   10   13 1
    21   11   12 1
    22   14   15 1
    23   14   16 1
    24   14   17 1
