@<TRIPOS>MOLECULE
ZINC32944162
   68    71     0     0     0
SMALL
USER_CHARGES
(3S)-N-(4-acetylphenyl)-1-[5-[(E)-2-(2,5-dimethylphenyl)vinyl]-3-methyl-isoxazol-4-yl]sulfonyl-piperidine-3-carboxamide
@<TRIPOS>ATOM
      1 C1          2.5536    1.2171    0.2766 C.3       1 <0>        -0.1203
      2 C2          1.1932    1.8408    0.0995 C.ar      1 <0>        -0.0915
      3 C3          1.0724    3.2158   -0.0037 C.ar      1 <0>        -0.0973
      4 C4         -0.1723    3.7978   -0.1669 C.ar      1 <0>        -0.1213
      5 C5         -1.3030    3.0103   -0.2280 C.ar      1 <0>        -0.0598
      6 C6         -1.1885    1.6206   -0.1303 C.ar      1 <0>        -0.0817
      7 C7          0.0721    1.0403    0.0403 C.ar      1 <0>        -0.0937
      8 C8         -2.3902    0.7722   -0.2006 C.2       1 <0>        -0.0244
      9 C9         -2.2766   -0.5658   -0.1006 C.2       1 <0>        -0.1515
     10 C10        -3.4727   -1.4102   -0.1706 C.2       1 <0>         0.1527
     11 C11        -3.5226   -2.7809   -0.0911 C.2       1 <0>        -0.7933
     12 C12        -4.8944   -3.0756   -0.2100 C.2       1 <0>         0.1130
     13 N1         -5.5109   -1.9358   -0.3503 N.2       1 <0>        -0.3602
     14 O1         -4.7453   -1.0004   -0.3317 O.3       1 <0>         0.1016
     15 C13        -5.5264   -4.4435   -0.1859 C.3       1 <0>        -0.0998
     16 S1         -2.1831   -3.9070    0.1150 S.o2      1 <0>         2.7225
     17 O2         -2.6177   -5.1551   -0.4071 O.2       1 <0>        -0.9392
     18 O3         -1.0194   -3.2454   -0.3617 O.2       1 <0>        -0.9465
     19 N2         -1.9712   -4.1230    1.7431 N.pl3     1 <0>        -0.9936
     20 C14        -1.0595   -3.2552    2.5010 C.3       1 <0>         0.1122
     21 C15        -1.8284   -2.6580    3.6894 C.3       1 <0>        -0.1345
     22 C16        -2.4454   -3.7916    4.5118 C.3       1 <0>        -0.1097
     23 C17        -3.4332   -4.5746    3.6439 C.3       1 <0>        -0.1223
     24 H1         -4.2284   -3.9055    3.2835 H         1 <0>         0.1069
     25 C18        -2.6868   -5.1900    2.4561 C.3       1 <0>         0.1361
     26 C19        -4.0642   -5.6704    4.4638 C.2       1 <0>         0.5221
     27 O4         -3.9309   -6.8293    4.1320 O.2       1 <0>        -0.5094
     28 N3         -4.7766   -5.3625    5.5657 N.am      1 <0>        -0.6855
     29 C20        -5.4510   -6.3636    6.2613 C.ar      1 <0>         0.1865
     30 C21        -5.5737   -6.2846    7.6458 C.ar      1 <0>        -0.1619
     31 C22        -6.2407   -7.2648    8.3339 C.ar      1 <0>        -0.0496
     32 C23        -6.7899   -8.3524    7.6431 C.ar      1 <0>        -0.1931
     33 C24        -6.6594   -8.4303    6.2509 C.ar      1 <0>        -0.0376
     34 C25        -5.9953   -7.4428    5.5705 C.ar      1 <0>        -0.1387
     35 C26        -7.5008   -9.4076    8.3764 C.2       1 <0>         0.3943
     36 O5         -7.9760  -10.3484    7.7763 O.2       1 <0>        -0.4590
     37 C27        -7.6398   -9.3215    9.8745 C.3       1 <0>        -0.2037
     38 C28        -2.6577    3.6460   -0.4058 C.3       1 <0>        -0.1296
     39 H2          3.3187    2.0070    0.3009 H         1 <0>         0.0674
     40 H3          2.7566    0.5357   -0.5627 H         1 <0>         0.0736
     41 H4          2.5784    0.6534    1.2208 H         1 <0>         0.0724
     42 H5          1.9541    3.8377    0.0437 H         1 <0>         0.1261
     43 H6         -0.2587    4.8713   -0.2471 H         1 <0>         0.1275
     44 H7          0.1680   -0.0324    0.1211 H         1 <0>         0.1321
     45 H8         -3.3806    1.2316   -0.3348 H         1 <0>         0.1415
     46 H9         -1.2862   -1.0252    0.0336 H         1 <0>         0.1742
     47 H10        -6.6160   -4.3461   -0.3016 H         1 <0>         0.0878
     48 H11        -5.3018   -4.9343    0.7726 H         1 <0>         0.0871
     49 H12        -5.1227   -5.0485   -1.0111 H         1 <0>         0.1050
     50 H13        -0.2074   -3.8478    2.8653 H         1 <0>         0.0847
     51 H14        -0.6931   -2.4492    1.8482 H         1 <0>         0.0938
     52 H15        -1.1373   -2.0791    4.3196 H         1 <0>         0.0871
     53 H16        -2.6249   -1.9974    3.3162 H         1 <0>         0.0711
     54 H17        -1.6499   -4.4664    4.8607 H         1 <0>         0.0786
     55 H18        -2.9746   -3.3696    5.3789 H         1 <0>         0.0733
     56 H19        -3.4034   -5.6703    1.7736 H         1 <0>         0.1015
     57 H20        -1.9653   -5.9382    2.8161 H         1 <0>         0.0939
     58 H21        -4.8255   -4.3208    5.9157 H         1 <0>         0.4374
     59 H22        -5.1463   -5.4477    8.1781 H         1 <0>         0.1326
     60 H23        -6.3389   -7.2007    9.4075 H         1 <0>         0.1367
     61 H24        -7.0810   -9.2673    5.7142 H         1 <0>         0.1367
     62 H25        -5.8939   -7.5022    4.4969 H         1 <0>         0.1399
     63 H26        -8.1981  -10.1952   10.2417 H         1 <0>         0.0863
     64 H27        -8.1818   -8.4019   10.1402 H         1 <0>         0.0945
     65 H28        -6.6410   -9.3045   10.3350 H         1 <0>         0.0946
     66 H29        -3.4297    2.8628   -0.4313 H         1 <0>         0.0706
     67 H30        -2.6768    4.2105   -1.3497 H         1 <0>         0.0765
     68 H31        -2.8554    4.3286    0.4338 H         1 <0>         0.0763
@<TRIPOS>BOND
     1    1    2 1
     2    1   39 1
     3    1   40 1
     4    1   41 1
     5    2    7 ar
     6    2    3 ar
     7    3    4 ar
     8    3   42 1
     9    4    5 ar
    10    4   43 1
    11    5    6 ar
    12    5   38 1
    13    6    7 ar
    14    6    8 1
    15    7   44 1
    16    8    9 2
    17    8   45 1
    18    9   10 1
    19    9   46 1
    20   10   14 1
    21   10   11 2
    22   11   12 1
    23   11   16 1
    24   12   13 2
    25   12   15 1
    26   13   14 1
    27   15   47 1
    28   15   48 1
    29   15   49 1
    30   16   17 2
    31   16   18 2
    32   16   19 1
    33   19   25 1
    34   19   20 1
    35   20   21 1
    36   20   50 1
    37   20   51 1
    38   21   22 1
    39   21   52 1
    40   21   53 1
    41   22   23 1
    42   22   54 1
    43   22   55 1
    44   23   24 1
    45   23   25 1
    46   23   26 1
    47   25   56 1
    48   25   57 1
    49   26   27 2
    50   26   28 am
    51   28   29 1
    52   28   58 1
    53   29   34 ar
    54   29   30 ar
    55   30   31 ar
    56   30   59 1
    57   31   32 ar
    58   31   60 1
    59   32   33 ar
    60   32   35 1
    61   33   34 ar
    62   33   61 1
    63   34   62 1
    64   35   36 2
    65   35   37 1
    66   37   63 1
    67   37   64 1
    68   37   65 1
    69   38   66 1
    70   38   67 1
    71   38   68 1
