@<TRIPOS>MOLECULE
ZINC13049567
   55    57     0     0     0
SMALL
USER_CHARGES
2-[(1S)-2-[(5-chloro-2-methyl-phenyl)amino]-1-methyl-2-oxo-ethyl]sulfanyl-3-isobutyl-4-oxo-quinazoline-7-carboxylic acid
@<TRIPOS>ATOM
      1 C1         -0.1658    0.2917   -1.2325 C.3       1 <0>        -0.1196
      2 C2         -0.0983    1.6436   -0.5699 C.ar      1 <0>        -0.1094
      3 C3          1.0875    2.3522   -0.5645 C.ar      1 <0>        -0.0870
      4 C4          1.1509    3.5924    0.0430 C.ar      1 <0>        -0.1260
      5 C5          0.0269    4.1281    0.6477 C.ar      1 <0>        -0.0188
      6 C6         -1.1622    3.4236    0.6454 C.ar      1 <0>        -0.1209
      7 C7         -1.2294    2.1802    0.0307 C.ar      1 <0>         0.1630
      8 N1         -2.4332    1.4669    0.0215 N.am      1 <0>        -0.6604
      9 C8         -3.6057    2.1222    0.1323 C.2       1 <0>         0.5384
     10 O1         -3.6243    3.3349    0.1393 O.2       1 <0>        -0.4995
     11 C9         -4.8935    1.3482    0.2477 C.3       1 <0>        -0.1109
     12 H1         -4.7411    0.4833    0.8933 H         1 <0>         0.1337
     13 C10        -5.3317    0.8774   -1.1406 C.3       1 <0>        -0.1480
     14 S1         -6.1752    2.4117    0.9565 S.3       1 <0>         0.0566
     15 C11        -7.4865    1.2456    1.1162 C.2       1 <0>         0.3404
     16 N2         -7.2761    0.0120    0.7283 N.2       1 <0>        -0.5117
     17 C12        -8.2377   -0.9358    0.8271 C.ar      1 <0>         0.1372
     18 C13        -8.0091   -2.2527    0.4180 C.ar      1 <0>        -0.0737
     19 C14        -9.0278   -3.1901    0.5338 C.ar      1 <0>        -0.0666
     20 C15       -10.2751   -2.8233    1.0559 C.ar      1 <0>        -0.0868
     21 C16       -10.5099   -1.5399    1.4581 C.ar      1 <0>        -0.0630
     22 C17        -9.5016   -0.5826    1.3510 C.ar      1 <0>        -0.1954
     23 C18        -9.7117    0.8113    1.7737 C.2       1 <0>         0.5577
     24 O2        -10.7780    1.1774    2.2323 O.2       1 <0>        -0.5095
     25 N3         -8.6766    1.6711    1.6333 N.am      1 <0>        -0.5269
     26 C19        -8.8339    3.0700    2.0390 C.3       1 <0>         0.0947
     27 C20        -9.3461    3.8903    0.8535 C.3       1 <0>        -0.1114
     28 C21       -10.7514    3.4180    0.4756 C.3       1 <0>        -0.1431
     29 C22        -9.3919    5.3702    1.2391 C.3       1 <0>        -0.1426
     30 C23        -8.7937   -4.5860    0.1030 C.2       1 <0>         0.4878
     31 O3         -7.7141   -4.9088   -0.3498 O.co2     1 <0>        -0.6219
     32 Cl1         0.1110    5.6855    1.4099 Cl        1 <0>        -0.0665
     33 H2          0.0815   -0.4819   -0.5056 H         1 <0>         0.0771
     34 H3         -1.1731    0.1237   -1.6134 H         1 <0>         0.0673
     35 H4          0.5455    0.2557   -2.0577 H         1 <0>         0.0760
     36 H5          1.9661    1.9370   -1.0358 H         1 <0>         0.1368
     37 H6          2.0791    4.1445    0.0455 H         1 <0>         0.1340
     38 H7         -2.0392    3.8416    1.1173 H         1 <0>         0.1574
     39 H8         -2.4238    0.5008   -0.0647 H         1 <0>         0.4189
     40 H9         -4.5599    0.2370   -1.5674 H         1 <0>         0.0713
     41 H10        -6.2632    0.3175   -1.0571 H         1 <0>         0.1031
     42 H11        -5.4842    1.7423   -1.7862 H         1 <0>         0.0683
     43 H12        -7.0486   -2.5391    0.0157 H         1 <0>         0.1440
     44 H13       -11.0581   -3.5623    1.1402 H         1 <0>         0.1427
     45 H14       -11.4748   -1.2668    1.8593 H         1 <0>         0.1334
     46 H15        -9.5486    3.1321    2.8597 H         1 <0>         0.1033
     47 H16        -7.8714    3.4642    2.3649 H         1 <0>         0.0940
     48 H17        -8.6771    3.7570    0.0033 H         1 <0>         0.0797
     49 H18       -11.4204    3.5514    1.3257 H         1 <0>         0.0626
     50 H19       -11.1163    4.0024   -0.3691 H         1 <0>         0.0537
     51 H20       -10.7187    2.3637    0.2008 H         1 <0>         0.0508
     52 H21        -8.3907    5.7067    1.5083 H         1 <0>         0.0595
     53 H22        -9.7568    5.9547    0.3945 H         1 <0>         0.0617
     54 H23       -10.0609    5.5036    2.0893 H         1 <0>         0.0579
     55 O4         -9.7780   -5.4988    0.2130 O.co2     1 <0>        -0.7434
@<TRIPOS>BOND
     1    1    2 1
     2    1   33 1
     3    1   34 1
     4    1   35 1
     5    2    7 ar
     6    2    3 ar
     7    3    4 ar
     8    3   36 1
     9    4    5 ar
    10    4   37 1
    11    5    6 ar
    12    5   32 1
    13    6    7 ar
    14    6   38 1
    15    7    8 1
    16    8    9 am
    17    8   39 1
    18    9   10 2
    19    9   11 1
    20   11   12 1
    21   11   13 1
    22   11   14 1
    23   13   40 1
    24   13   41 1
    25   13   42 1
    26   14   15 1
    27   15   25 1
    28   15   16 2
    29   16   17 1
    30   17   22 ar
    31   17   18 ar
    32   18   19 ar
    33   18   43 1
    34   19   20 ar
    35   19   30 1
    36   20   21 ar
    37   20   44 1
    38   21   22 ar
    39   21   45 1
    40   22   23 1
    41   23   24 2
    42   23   25 am
    43   25   26 1
    44   26   27 1
    45   26   46 1
    46   26   47 1
    47   27   28 1
    48   27   29 1
    49   27   48 1
    50   28   49 1
    51   28   50 1
    52   28   51 1
    53   29   52 1
    54   29   53 1
    55   29   54 1
    56   30   31 2
    57   30   55 1
