@<TRIPOS>MOLECULE
ZINC39683564
   77    80     0     0     0
SMALL
USER_CHARGES

@<TRIPOS>ATOM
      1 C1         -6.2390    1.8086   -8.0875 C.3       1 <0>        -0.1602
      2 C2         -6.3934    0.2886   -8.1700 C.3       1 <0>        -0.1212
      3 C3         -6.3896   -0.3017   -6.7584 C.3       1 <0>        -0.1502
      4 C4         -6.5440   -1.8216   -6.8408 C.3       1 <0>        -0.0106
      5 N1         -6.5403   -2.3884   -5.4856 N.4       1 <0>        -0.3848
      6 C5         -7.7186   -1.9091   -4.7532 C.3       1 <0>        -0.0097
      7 C6         -7.6774   -2.4312   -3.3154 C.3       1 <0>        -0.1414
      8 C7         -7.6740   -3.9625   -3.3341 C.3       1 <0>        -0.1096
      9 C8         -6.4825   -4.4505   -4.1631 C.3       1 <0>        -0.1458
     10 C9         -6.5680   -3.8535   -5.5695 C.3       1 <0>        -0.0057
     11 C10        -7.5528   -4.4913   -1.9035 C.3       1 <0>         0.1210
     12 N2         -7.6696   -5.9516   -1.9112 N.am      1 <0>        -0.7374
     13 C11        -7.5924   -6.6399   -0.7550 C.2       1 <0>         0.5146
     14 O1         -7.4262   -6.0504    0.2918 O.2       1 <0>        -0.4989
     15 C12        -7.7125   -8.1421   -0.7629 C.3       1 <0>        -0.1130
     16 H1         -7.3793   -8.5437   -1.7199 H         1 <0>         0.1174
     17 C13        -6.8897   -8.7537    0.3931 C.3       1 <0>         0.1219
     18 N3         -7.8653   -8.9310    1.4943 N.am      1 <0>        -0.6098
     19 C14        -9.1032   -9.3899    0.8197 C.3       1 <0>         0.0872
     20 C15        -9.1641   -8.5647   -0.4811 C.3       1 <0>        -0.0734
     21 C16       -10.0438   -7.3340   -0.2832 C.3       1 <0>        -0.1458
     22 C17       -11.4923   -7.7783   -0.0609 C.3       1 <0>        -0.0107
     23 N4        -11.9521   -8.5519   -1.2206 N.4       1 <0>        -0.5047
     24 C18       -11.1599   -9.7809   -1.3489 C.3       1 <0>        -0.0118
     25 C19        -9.6973   -9.4213   -1.6253 C.3       1 <0>        -0.1330
     26 C20        -7.6711   -8.7223    2.8115 C.2       1 <0>         0.6045
     27 O2         -6.6285   -8.2334    3.2025 O.2       1 <0>        -0.4854
     28 C21        -8.7223   -9.0866    3.7782 C.2       1 <0>        -0.1613
     29 C22        -9.9701   -9.8135    3.5023 C.2       1 <0>        -0.2211
     30 C23       -10.6070   -9.9128    4.6791 C.2       1 <0>         0.0493
     31 O3         -9.8684   -9.3202    5.6302 O.3       1 <0>        -0.1377
     32 C24        -8.7380   -8.8251    5.1169 C.2       1 <0>        -0.0256
     33 C25        -7.6647   -8.0987    5.8859 C.3       1 <0>         0.5499
     34 F1         -7.9427   -6.7276    5.8928 F         1 <0>        -0.1607
     35 F2         -7.6305   -8.5742    7.2012 F         1 <0>        -0.1623
     36 F3         -6.4244   -8.3200    5.2777 F         1 <0>        -0.1255
     37 C26       -11.9390  -10.5829    4.8979 C.3       1 <0>        -0.0877
     38 H2         -6.2417    2.2291   -9.0931 H         1 <0>         0.0689
     39 H3         -7.0674    2.2275   -7.5163 H         1 <0>         0.0590
     40 H4         -5.2978    2.0520   -7.5945 H         1 <0>         0.0603
     41 H5         -7.3346    0.0453   -8.6630 H         1 <0>         0.0728
     42 H6         -5.5650   -0.1303   -8.7412 H         1 <0>         0.0743
     43 H7         -5.4484   -0.0583   -6.2654 H         1 <0>         0.0877
     44 H8         -7.2179    0.1173   -6.1871 H         1 <0>         0.0863
     45 H9         -7.4852   -2.0650   -7.3339 H         1 <0>         0.1294
     46 H10        -5.7156   -2.2406   -7.4121 H         1 <0>         0.1326
     47 H11        -7.7212   -0.8191   -4.7435 H         1 <0>         0.1367
     48 H12        -8.6225   -2.2694   -5.2443 H         1 <0>         0.1288
     49 H13        -6.7739   -2.0712   -2.8232 H         1 <0>         0.0952
     50 H14        -8.5539   -2.0757   -2.7738 H         1 <0>         0.1162
     51 H15        -8.6007   -4.3235   -3.7801 H         1 <0>         0.0939
     52 H16        -5.5542   -4.1324   -3.6885 H         1 <0>         0.0948
     53 H17        -6.5050   -5.5383   -4.2275 H         1 <0>         0.1091
     54 H18        -7.4964   -4.1724   -6.0432 H         1 <0>         0.1279
     55 H19        -5.7212   -4.1991   -6.1625 H         1 <0>         0.1336
     56 H20        -6.5847   -4.2064   -1.4916 H         1 <0>         0.0793
     57 H21        -8.3477   -4.0665   -1.2905 H         1 <0>         0.0793
     58 H22        -7.8026   -6.4231   -2.7484 H         1 <0>         0.3981
     59 H23        -6.4734   -9.7162    0.0955 H         1 <0>         0.0926
     60 H24        -6.0947   -8.0721    0.6958 H         1 <0>         0.1029
     61 H25        -9.0402  -10.4539    0.5915 H         1 <0>         0.0915
     62 H26        -9.9742   -9.1843    1.4421 H         1 <0>         0.0963
     63 H27        -9.6972   -6.7748    0.5859 H         1 <0>         0.1239
     64 H28        -9.9891   -6.7013   -1.1691 H         1 <0>         0.0931
     65 H29       -11.5488   -8.3976    0.8343 H         1 <0>         0.1333
     66 H30       -12.1262   -6.9004    0.0645 H         1 <0>         0.1402
     67 H31       -12.9247   -8.7914   -1.0992 H         1 <0>         0.4367
     68 H32       -11.2245  -10.3529   -0.4233 H         1 <0>         0.1338
     69 H33       -11.5487  -10.3791   -2.1730 H         1 <0>         0.1431
     70 H34        -9.6299   -8.8636   -2.5594 H         1 <0>         0.0959
     71 H35        -9.1064  -10.3341   -1.7025 H         1 <0>         0.1244
     72 H36       -10.3058  -10.1902    2.5473 H         1 <0>         0.1692
     73 H37       -11.7818  -11.6353    5.1343 H         1 <0>         0.0994
     74 H38       -12.4579  -10.0983    5.7249 H         1 <0>         0.0919
     75 H39       -12.5406  -10.4997    3.9928 H         1 <0>         0.0957
     76 H40        -5.7043   -2.0959   -5.0021 H         1 <0>         0.4246
     77 H41       -11.8470   -7.9968   -2.0566 H         1 <0>         0.4265
@<TRIPOS>BOND
     1    1    2 1
     2    1   38 1
     3    1   39 1
     4    1   40 1
     5    2    3 1
     6    2   41 1
     7    2   42 1
     8    3    4 1
     9    3   43 1
    10    3   44 1
    11    4    5 1
    12    4   45 1
    13    4   46 1
    14    5   10 1
    15    5    6 1
    16    5   76 1
    17    6    7 1
    18    6   47 1
    19    6   48 1
    20    7    8 1
    21    7   49 1
    22    7   50 1
    23    8    9 1
    24    8   11 1
    25    8   51 1
    26    9   10 1
    27    9   52 1
    28    9   53 1
    29   10   54 1
    30   10   55 1
    31   11   12 1
    32   11   56 1
    33   11   57 1
    34   12   13 am
    35   12   58 1
    36   13   14 2
    37   13   15 1
    38   15   16 1
    39   15   20 1
    40   15   17 1
    41   17   18 1
    42   17   59 1
    43   17   60 1
    44   18   19 1
    45   18   26 am
    46   19   20 1
    47   19   61 1
    48   19   62 1
    49   20   25 1
    50   20   21 1
    51   21   22 1
    52   21   63 1
    53   21   64 1
    54   22   23 1
    55   22   65 1
    56   22   66 1
    57   23   24 1
    58   23   67 1
    59   23   77 1
    60   24   25 1
    61   24   68 1
    62   24   69 1
    63   25   70 1
    64   25   71 1
    65   26   27 2
    66   26   28 1
    67   28   32 2
    68   28   29 1
    69   29   30 2
    70   29   72 1
    71   30   31 1
    72   30   37 1
    73   31   32 1
    74   32   33 1
    75   33   34 1
    76   33   35 1
    77   33   36 1
    78   37   73 1
    79   37   74 1
    80   37   75 1
