@<TRIPOS>MOLECULE
ZINC40795043
   53    57     0     0     0
SMALL
USER_CHARGES

@<TRIPOS>ATOM
      1 C1          0.3048    1.0816    0.3869 C.ar      1 <0>        -0.1118
      2 C2          0.4922   -0.2880    0.3921 C.ar      1 <0>        -0.1146
      3 C3          1.7654   -0.8119    0.2674 C.ar      1 <0>        -0.1073
      4 C4          2.8510    0.0338    0.1371 C.ar      1 <0>        -0.0881
      5 C5          2.6635    1.4034    0.1309 C.ar      1 <0>        -0.1052
      6 C6          1.3905    1.9273    0.2570 C.ar      1 <0>        -0.1146
      7 C7          4.2391   -0.5373    0.0021 C.3       1 <0>        -0.0090
      8 C8          4.6243   -1.2294    1.2841 C.ar      1 <0>        -0.0724
      9 C9          3.9592   -2.3755    1.6777 C.ar      1 <0>        -0.0797
     10 C10         4.3126   -3.0104    2.8537 C.ar      1 <0>        -0.1226
     11 C11         5.3314   -2.4994    3.6359 C.ar      1 <0>        -0.1129
     12 C12         5.9972   -1.3538    3.2418 C.ar      1 <0>        -0.1226
     13 C13         5.6467   -0.7214    2.0637 C.ar      1 <0>        -0.1061
     14 C14         4.2661   -1.5293   -1.1320 C.2       1 <0>         0.5222
     15 O1          4.5684   -2.6845   -0.9201 O.2       1 <0>        -0.5253
     16 N1          3.9543   -1.1326   -2.3818 N.am      1 <0>        -0.5053
     17 N2          3.9794   -2.0549   -3.4362 N.pl3     1 <0>        -0.5053
     18 C15         3.6580   -1.6461   -4.7242 C.ar      1 <0>         0.4049
     19 C16         3.6738   -2.5588   -5.7841 C.ar      1 <0>         0.1032
     20 C17         3.3425   -2.0955   -7.0565 C.ar      1 <0>         0.3421
     21 N3          3.0263   -0.8125   -7.2133 N.ar      1 <0>        -0.5173
     22 C18         3.0233    0.0147   -6.1888 C.ar      1 <0>         0.3167
     23 N4          3.3251   -0.3823   -4.9684 N.ar      1 <0>        -0.5418
     24 N5          3.3430   -2.9644   -8.1498 N.pl3     1 <0>        -0.3446
     25 C19         3.9670   -2.7635   -9.3613 C.ar      1 <0>         0.1086
     26 C20         4.7420   -1.7377   -9.8901 C.ar      1 <0>        -0.1103
     27 C21         5.2315   -1.8443  -11.1727 C.ar      1 <0>        -0.0622
     28 C22         4.9559   -2.9689  -11.9400 C.ar      1 <0>        -0.1288
     29 C23         4.1974   -3.9861  -11.4390 C.ar      1 <0>        -0.0334
     30 C24         3.6876   -3.9020  -10.1370 C.ar      1 <0>        -0.0198
     31 N6          2.9239   -4.7308   -9.3870 N.2       1 <0>        -0.1973
     32 N7          2.7132   -4.2153   -8.2273 N.2       1 <0>         0.0006
     33 N8          4.0139   -3.9024   -5.5728 N.pl3     1 <0>        -0.8539
     34 H1         -0.6903    1.4908    0.4798 H         1 <0>         0.1244
     35 H2         -0.3560   -0.9487    0.4939 H         1 <0>         0.1240
     36 H3          1.9119   -1.8819    0.2722 H         1 <0>         0.1213
     37 H4          3.5118    2.0641    0.0298 H         1 <0>         0.1272
     38 H5          1.2441    2.9973    0.2527 H         1 <0>         0.1268
     39 H6          4.9449    0.2678   -0.2025 H         1 <0>         0.1187
     40 H7          3.1632   -2.7747    1.0666 H         1 <0>         0.1205
     41 H8          3.7924   -3.9054    3.1616 H         1 <0>         0.1224
     42 H9          5.6070   -2.9951    4.5550 H         1 <0>         0.1223
     43 H10         6.7929   -0.9544    3.8531 H         1 <0>         0.1240
     44 H11         6.1693    0.1715    1.7539 H         1 <0>         0.1228
     45 H12         3.7125   -0.2087   -2.5513 H         1 <0>         0.4360
     46 H13         4.2211   -2.9788   -3.2667 H         1 <0>         0.4402
     47 H14         2.7615    1.0496   -6.3526 H         1 <0>         0.2108
     48 H15         4.9588   -0.8611   -9.2978 H         1 <0>         0.1353
     49 H16         5.8334   -1.0480  -11.5850 H         1 <0>         0.1418
     50 H17         5.3462   -3.0387  -12.9445 H         1 <0>         0.1413
     51 H18         3.9902   -4.8553  -12.0456 H         1 <0>         0.1424
     52 H19         4.1750   -4.2261   -4.6727 H         1 <0>         0.4018
     53 H20         4.0882   -4.5083   -6.3266 H         1 <0>         0.4094
@<TRIPOS>BOND
     1    1    6 ar
     2    1    2 ar
     3    1   34 1
     4    2    3 ar
     5    2   35 1
     6    3    4 ar
     7    3   36 1
     8    4    5 ar
     9    4    7 1
    10    5    6 ar
    11    5   37 1
    12    6   38 1
    13    7    8 1
    14    7   14 1
    15    7   39 1
    16    8   13 ar
    17    8    9 ar
    18    9   10 ar
    19    9   40 1
    20   10   11 ar
    21   10   41 1
    22   11   12 ar
    23   11   42 1
    24   12   13 ar
    25   12   43 1
    26   13   44 1
    27   14   15 2
    28   14   16 am
    29   16   17 1
    30   16   45 1
    31   17   18 1
    32   17   46 1
    33   18   23 ar
    34   18   19 ar
    35   19   20 ar
    36   19   33 1
    37   20   21 ar
    38   20   24 1
    39   21   22 ar
    40   22   23 ar
    41   22   47 1
    42   24   32 1
    43   24   25 1
    44   25   30 ar
    45   25   26 ar
    46   26   27 ar
    47   26   48 1
    48   27   28 ar
    49   27   49 1
    50   28   29 ar
    51   28   50 1
    52   29   30 ar
    53   29   51 1
    54   30   31 1
    55   31   32 2
    56   33   52 1
    57   33   53 1
