@<TRIPOS>MOLECULE
ZINC38798861
   57    60     0     0     0
SMALL
USER_CHARGES

@<TRIPOS>ATOM
      1 C1         -0.0173    1.4248    0.0099 C.3       1 <0>         0.0153
      2 O1          0.0021   -0.0041    0.0020 O.3       1 <0>        -0.2956
      3 C2          0.6252   -0.6178    1.0405 C.ar      1 <0>         0.2063
      4 C3          1.2015    0.1428    2.0502 C.ar      1 <0>        -0.2104
      5 C4          1.8343   -0.4767    3.1058 C.ar      1 <0>        -0.0074
      6 C5          1.8959   -1.8701    3.1599 C.ar      1 <0>        -0.1850
      7 C6          1.3158   -2.6310    2.1438 C.ar      1 <0>        -0.0128
      8 C7          0.6800   -2.0049    1.0939 C.ar      1 <0>        -0.1487
      9 C8          2.5749   -2.5387    4.2914 C.cat     1 <0>         0.5742
     10 N1          3.1777   -3.6853    4.2083 N.pl3     1 <0>        -0.6265
     11 C9          3.7282   -4.0239    5.5262 C.3       1 <0>         0.2546
     12 H1          4.8126   -4.1181    5.4692 H         1 <0>         0.1562
     13 O2          3.3689   -2.9298    6.3837 O.3       1 <0>        -0.1070
     14 N2          2.6524   -2.0226    5.5613 N.pl3     1 <0>        -0.5133
     15 C10         3.1105   -5.3262    6.0394 C.3       1 <0>        -0.1397
     16 C11         3.7851   -5.7278    7.3526 C.3       1 <0>        -0.1331
     17 C12         3.1767   -7.0105    7.8581 C.2       1 <0>         0.5175
     18 O3          2.2908   -7.5504    7.2298 O.2       1 <0>        -0.4996
     19 N3          3.6170   -7.5578    9.0083 N.am      1 <0>        -0.6076
     20 C13         3.0559   -8.7410    9.4746 C.2       1 <0>         0.2401
     21 N4          3.3513   -9.4108   10.5675 N.2       1 <0>        -0.5257
     22 C14         2.7209  -10.5296   10.8735 C.2       1 <0>         0.0868
     23 C15         1.7618  -10.9515   10.0133 C.2       1 <0>        -0.2560
     24 S1          1.8285   -9.6606    8.7815 S.3       1 <0>         0.2308
     25 C16         3.0531  -11.3036   12.1231 C.3       1 <0>         0.0335
     26 C17         4.5268  -11.6177   12.1427 C.2       1 <0>         0.2807
     27 H2          7.4728  -11.6425   11.1291 H         1 <0>         0.4670
     28 N5          5.3822  -11.2739   11.2343 N.2       1 <0>        -0.2525
     29 N6          6.6426  -11.7518   11.6187 N.pl3     1 <0>        -0.4785
     30 C18         6.4867  -12.3925   12.7961 C.2       1 <0>         0.4731
     31 S2          7.7187  -13.1621   13.7021 S.2       1 <0>        -0.5690
     32 N7          5.1832  -12.3103   13.1302 N.pl3     1 <0>        -0.4881
     33 C19         4.5709  -12.8675   14.3388 C.3       1 <0>         0.1424
     34 C20         4.1110  -14.2763   14.0653 C.2       1 <0>        -0.2068
     35 C21         4.5211  -15.2590   14.8283 C.2       1 <0>        -0.1237
     36 H3          1.0053    1.8021    0.0021 H         1 <0>         0.0685
     37 H4         -0.5445    1.7859   -0.8732 H         1 <0>         0.1171
     38 H5         -0.5275    1.7763    0.9067 H         1 <0>         0.0685
     39 H6          1.1538    1.2209    2.0075 H         1 <0>         0.1551
     40 H7          2.2825    0.1151    3.8902 H         1 <0>         0.1438
     41 H8          1.3617   -3.7093    2.1826 H         1 <0>         0.1472
     42 H9          0.2271   -2.5932    0.3095 H         1 <0>         0.1589
     43 H10         2.2767   -1.1761    5.8499 H         1 <0>         0.4875
     44 H11         2.0436   -5.1804    6.2087 H         1 <0>         0.1033
     45 H12         3.2568   -6.1137    5.3001 H         1 <0>         0.1175
     46 H13         4.8519   -5.8736    7.1834 H         1 <0>         0.1177
     47 H14         3.6388   -4.9403    8.0919 H         1 <0>         0.1170
     48 H15         4.3256   -7.1261    9.5108 H         1 <0>         0.4273
     49 H16         1.1292  -11.8255   10.0616 H         1 <0>         0.2017
     50 H17         2.7970  -10.7072   12.9988 H         1 <0>         0.1204
     51 H18         2.4834  -12.2328   12.1372 H         1 <0>         0.1240
     52 H19         5.3027  -12.8746   15.1467 H         1 <0>         0.1203
     53 H20         3.7162  -12.2560   14.6282 H         1 <0>         0.1091
     54 H21         3.4432  -14.4757   13.2402 H         1 <0>         0.1141
     55 H22         4.1915  -16.2686   14.6322 H         1 <0>         0.1083
     56 H23         5.1888  -15.0596   15.6534 H         1 <0>         0.1093
     57 H24         3.2518   -4.2285    3.4081 H         1 <0>         0.4718
@<TRIPOS>BOND
     1    1    2 1
     2    1   36 1
     3    1   37 1
     4    1   38 1
     5    2    3 1
     6    3    8 ar
     7    3    4 ar
     8    4    5 ar
     9    4   39 1
    10    5    6 ar
    11    5   40 1
    12    6    7 ar
    13    6    9 1
    14    7    8 ar
    15    7   41 1
    16    8   42 1
    17    9   14 1
    18    9   10 2
    19   10   11 1
    20   10   57 1
    21   11   12 1
    22   11   13 1
    23   11   15 1
    24   13   14 1
    25   14   43 1
    26   15   16 1
    27   15   44 1
    28   15   45 1
    29   16   17 1
    30   16   46 1
    31   16   47 1
    32   17   18 2
    33   17   19 am
    34   19   20 1
    35   19   48 1
    36   20   24 1
    37   20   21 2
    38   21   22 1
    39   22   23 2
    40   22   25 1
    41   23   24 1
    42   23   49 1
    43   25   50 1
    44   25   51 1
    45   25   26 1
    46   26   32 1
    47   26   28 2
    48   27   29 1
    49   28   29 1
    50   29   30 1
    51   30   31 2
    52   30   32 1
    53   32   33 1
    54   33   34 1
    55   33   52 1
    56   33   53 1
    57   34   35 2
    58   34   54 1
    59   35   55 1
    60   35   56 1
