@<TRIPOS>MOLECULE
ZINC08616526
   52    55     0     0     0
SMALL
USER_CHARGES

@<TRIPOS>ATOM
      1 C1         -0.4070    1.5143   -0.0746 C.3       1 <0>        -0.1155
      2 C2         -0.4237    0.0075   -0.0941 C.ar      1 <0>        -0.0610
      3 C3         -0.5222   -0.6673   -1.2952 C.ar      1 <0>        -0.1191
      4 C4         -0.5375   -2.0498   -1.3139 C.ar      1 <0>        -0.0944
      5 C5         -0.4538   -2.7610   -0.1310 C.ar      1 <0>        -0.1186
      6 C6         -0.3546   -2.0918    1.0732 C.ar      1 <0>        -0.0591
      7 C7         -0.3342   -0.7038    1.0947 C.ar      1 <0>         0.1008
      8 N1         -0.2283   -0.0218    2.3151 N.am      1 <0>        -0.5402
      9 C8          0.9600    0.3345    2.8686 C.2       1 <0>         0.5436
     10 O1          2.0466    0.3190    2.3314 O.2       1 <0>        -0.4499
     11 C9          0.6585    0.7503    4.2764 C.3       1 <0>        -0.1407
     12 H1          0.6578   -0.1173    4.9361 H         1 <0>         0.1286
     13 C10         1.4748    1.8718    4.8835 C.3       1 <0>        -0.0738
     14 C11         0.7492    2.3160    6.1362 C.2       1 <0>        -0.1375
     15 C12        -0.4975    2.0567    6.3920 C.2       1 <0>        -0.1563
     16 C13        -1.4197    1.2936    5.4645 C.3       1 <0>         0.0085
     17 H2         -2.3963    1.7764    5.4306 H         1 <0>         0.1172
     18 C14        -0.7904    1.2994    4.0951 C.3       1 <0>        -0.1285
     19 H3         -0.7668    2.3192    3.7111 H         1 <0>         0.1387
     20 C15        -1.3043    0.3518    3.0553 C.2       1 <0>         0.5426
     21 O2         -2.4515   -0.0103    2.9057 O.2       1 <0>        -0.4481
     22 C16        -1.5656   -0.1290    5.9398 C.ar      1 <0>        -0.0920
     23 C17        -0.5249   -0.7439    6.6104 C.ar      1 <0>        -0.0388
     24 C18        -0.6587   -2.0488    7.0464 C.ar      1 <0>        -0.1844
     25 C19        -1.8335   -2.7387    6.8123 C.ar      1 <0>        -0.0208
     26 C20        -2.8746   -2.1235    6.1426 C.ar      1 <0>        -0.1800
     27 C21        -2.7423   -0.8172    5.7103 C.ar      1 <0>        -0.0145
     28 C22        -4.1552   -2.8758    5.8869 C.3       1 <0>         0.5112
     29 F1         -4.0515   -4.1665    6.4166 F         1 <0>        -0.1735
     30 F2         -5.2200   -2.2051    6.4981 F         1 <0>        -0.1711
     31 F3         -4.3828   -2.9541    4.5088 F         1 <0>        -0.1674
     32 C23         0.4762   -2.7195    7.7766 C.3       1 <0>         0.5114
     33 F4          0.3447   -2.4937    9.1510 F         1 <0>        -0.1700
     34 F5          0.4444   -4.0953    7.5248 F         1 <0>        -0.1715
     35 F6          1.6933   -2.1920    7.3318 F         1 <0>        -0.1726
     36 C24        -0.2635   -2.8675    2.3619 C.3       1 <0>        -0.1164
     37 H4          0.6212    1.8673   -0.1531 H         1 <0>         0.0777
     38 H5         -0.9871    1.8949   -0.9153 H         1 <0>         0.0758
     39 H6         -0.8432    1.8704    0.8587 H         1 <0>         0.0570
     40 H7         -0.5877   -0.1145   -2.2207 H         1 <0>         0.1316
     41 H8         -0.6154   -2.5753   -2.2543 H         1 <0>         0.1310
     42 H9         -0.4664   -3.8408   -0.1487 H         1 <0>         0.1315
     43 H10         2.4712    1.5110    5.1386 H         1 <0>         0.0974
     44 H11         1.5470    2.7021    4.1810 H         1 <0>         0.0938
     45 H12         1.3054    2.8861    6.8656 H         1 <0>         0.1241
     46 H13        -0.9034    2.4085    7.3290 H         1 <0>         0.1248
     47 H14         0.3930   -0.2049    6.7933 H         1 <0>         0.1519
     48 H15        -1.9378   -3.7585    7.1524 H         1 <0>         0.1547
     49 H16        -3.5571   -0.3353    5.1903 H         1 <0>         0.1526
     50 H17         0.7831   -3.0649    2.5940 H         1 <0>         0.0744
     51 H18        -0.7111   -2.2865    3.1682 H         1 <0>         0.0582
     52 H19        -0.7965   -3.8124    2.2558 H         1 <0>         0.0766
@<TRIPOS>BOND
     1    1    2 1
     2    1   37 1
     3    1   38 1
     4    1   39 1
     5    2    7 ar
     6    2    3 ar
     7    3    4 ar
     8    3   40 1
     9    4    5 ar
    10    4   41 1
    11    5    6 ar
    12    5   42 1
    13    6    7 ar
    14    6   36 1
    15    7    8 1
    16    8   20 am
    17    8    9 am
    18    9   10 2
    19    9   11 1
    20   11   12 1
    21   11   18 1
    22   11   13 1
    23   13   14 1
    24   13   43 1
    25   13   44 1
    26   14   15 2
    27   14   45 1
    28   15   16 1
    29   15   46 1
    30   16   17 1
    31   16   18 1
    32   16   22 1
    33   18   19 1
    34   18   20 1
    35   20   21 2
    36   22   27 ar
    37   22   23 ar
    38   23   24 ar
    39   23   47 1
    40   24   25 ar
    41   24   32 1
    42   25   26 ar
    43   25   48 1
    44   26   27 ar
    45   26   28 1
    46   27   49 1
    47   28   29 1
    48   28   30 1
    49   28   31 1
    50   32   33 1
    51   32   34 1
    52   32   35 1
    53   36   50 1
    54   36   51 1
    55   36   52 1
