@<TRIPOS>MOLECULE
ZINC40099476
   56    58     0     0     0
SMALL
USER_CHARGES

@<TRIPOS>ATOM
      1 C1          0.1445    1.2411   -0.1302 C.2       1 <0>        -0.1772
      2 C2          0.1217   -0.0664   -0.0529 C.2       1 <0>        -0.1512
      3 C3         -1.1954   -0.7986   -0.0567 C.3       1 <0>         0.0870
      4 O1         -1.1158   -1.9176   -0.9418 O.3       1 <0>        -0.3153
      5 C4         -2.2279   -2.6895   -1.0621 C.ar      1 <0>         0.1177
      6 C5         -3.3740   -2.3730   -0.3473 C.ar      1 <0>        -0.2123
      7 C6         -4.5032   -3.1590   -0.4716 C.ar      1 <0>        -0.0772
      8 C7         -4.4917   -4.2605   -1.3072 C.ar      1 <0>        -0.1066
      9 C8         -3.3506   -4.5783   -2.0203 C.ar      1 <0>        -0.0407
     10 C9         -2.2207   -3.7920   -1.9042 C.ar      1 <0>        -0.1553
     11 C10        -5.7249   -5.1165   -1.4405 C.3       1 <0>         0.2667
     12 H1         -6.5703   -4.6342   -0.9498 H         1 <0>         0.0669
     13 C11        -5.4800   -6.4784   -0.8340 C.2       1 <0>        -0.5061
     14 C12        -5.6339   -7.3825   -1.8291 C.2       1 <0>         0.2643
     15 C13        -5.9733   -6.6739   -3.0808 C.2       1 <0>         0.5157
     16 O2         -6.1743   -7.2094   -4.1527 O.2       1 <0>        -0.5229
     17 N1         -6.0283   -5.3469   -2.8578 N.am      1 <0>        -0.6113
     18 C14        -6.3359   -4.3160   -3.8523 C.3       1 <0>         0.1394
     19 C15        -5.0404   -3.8459   -4.5169 C.3       1 <0>         0.0498
     20 O3         -4.4656   -4.9252   -5.2565 O.3       1 <0>        -0.5524
     21 O4         -5.4981   -8.7224   -1.6988 O.3       1 <0>        -0.6565
     22 C16        -5.1409   -6.7652    0.5635 C.2       1 <0>         0.5073
     23 O5         -4.0514   -7.2306    0.8422 O.2       1 <0>        -0.4787
     24 C17        -6.1210   -6.4896    1.6323 C.ar      1 <0>        -0.1716
     25 C18        -7.4145   -6.0704    1.3063 C.ar      1 <0>        -0.0243
     26 C19        -8.3254   -5.8144    2.3061 C.ar      1 <0>        -0.1672
     27 C20        -7.9608   -5.9721    3.6387 C.ar      1 <0>         0.1390
     28 C21        -6.6754   -6.3883    3.9672 C.ar      1 <0>        -0.2251
     29 C22        -5.7602   -6.6525    2.9734 C.ar      1 <0>        -0.0345
     30 O6         -8.8618   -5.7186    4.6212 O.3       1 <0>        -0.3120
     31 C23        -8.4211   -5.9008    5.9683 C.3       1 <0>         0.0849
     32 C24        -9.5482   -5.5747    6.9140 C.2       1 <0>        -0.1536
     33 C25        -9.8052   -6.3674    7.9247 C.2       1 <0>        -0.1742
     34 H2          1.0885    1.7658   -0.1275 H         1 <0>         0.1061
     35 H3         -0.7805    1.7940   -0.2013 H         1 <0>         0.0987
     36 H4          1.0469   -0.6197    0.0137 H         1 <0>         0.1190
     37 H5         -1.4199   -1.1479    0.9512 H         1 <0>         0.0707
     38 H6         -1.9844   -0.1254   -0.3921 H         1 <0>         0.0650
     39 H7         -3.3832   -1.5132    0.3061 H         1 <0>         0.1209
     40 H8         -5.3957   -2.9130    0.0847 H         1 <0>         0.1219
     41 H9         -3.3440   -5.4394   -2.6721 H         1 <0>         0.1285
     42 H10        -1.3310   -4.0381   -2.4648 H         1 <0>         0.1246
     43 H11        -7.0034   -4.7287   -4.6088 H         1 <0>         0.0830
     44 H12        -6.8201   -3.4714   -3.3623 H         1 <0>         0.0858
     45 H13        -5.2580   -3.0182   -5.1919 H         1 <0>         0.0435
     46 H14        -4.3384   -3.5156   -3.7513 H         1 <0>         0.0560
     47 H15        -3.6397   -4.6985   -5.7054 H         1 <0>         0.3688
     48 H16        -7.6983   -5.9473    0.2716 H         1 <0>         0.1418
     49 H17        -9.3246   -5.4902    2.0552 H         1 <0>         0.1306
     50 H18        -6.3960   -6.5089    5.0035 H         1 <0>         0.1253
     51 H19        -4.7635   -6.9803    3.2293 H         1 <0>         0.1313
     52 H20        -8.1135   -6.9365    6.1130 H         1 <0>         0.0680
     53 H21        -7.5773   -5.2400    6.1670 H         1 <0>         0.0723
     54 H22       -10.1441   -4.6875    6.7584 H         1 <0>         0.1192
     55 H23        -9.2093   -7.2546    8.0803 H         1 <0>         0.0997
     56 H24       -10.6130   -6.1338    8.6025 H         1 <0>         0.1067
@<TRIPOS>BOND
     1    1    2 2
     2    1   34 1
     3    1   35 1
     4    2    3 1
     5    2   36 1
     6    3    4 1
     7    3   37 1
     8    3   38 1
     9    4    5 1
    10    5   10 ar
    11    5    6 ar
    12    6    7 ar
    13    6   39 1
    14    7    8 ar
    15    7   40 1
    16    8    9 ar
    17    8   11 1
    18    9   10 ar
    19    9   41 1
    20   10   42 1
    21   11   12 1
    22   11   17 1
    23   11   13 1
    24   13   14 2
    25   13   22 1
    26   14   15 1
    27   14   21 1
    28   15   16 2
    29   15   17 am
    30   17   18 1
    31   18   19 1
    32   18   43 1
    33   18   44 1
    34   19   20 1
    35   19   45 1
    36   19   46 1
    37   20   47 1
    38   22   23 2
    39   22   24 1
    40   24   29 ar
    41   24   25 ar
    42   25   26 ar
    43   25   48 1
    44   26   27 ar
    45   26   49 1
    46   27   28 ar
    47   27   30 1
    48   28   29 ar
    49   28   50 1
    50   29   51 1
    51   30   31 1
    52   31   32 1
    53   31   52 1
    54   31   53 1
    55   32   33 2
    56   32   54 1
    57   33   55 1
    58   33   56 1
