@<TRIPOS>MOLECULE
ZINC20190527
   63    65     0     0     0
SMALL
USER_CHARGES
O3-(2-ethylsulfanylethyl) O6-methyl (4S,6R,7S)-2,7-dimethyl-5-oxo-4-[4-(trifluoromethyl)phenyl]-4,6,7,8-tetrahydro-1H-quinoline-3,6-dicarboxylate
@<TRIPOS>ATOM
      1 C1          6.5623    1.4132   -6.2606 C.3       1 <0>        -0.1403
      2 C2          5.7640    1.3403   -4.9574 C.3       1 <0>        -0.0871
      3 S1          4.1253    0.6372   -5.2907 S.3       1 <0>        -0.2451
      4 C3          3.3169    0.6193   -3.6669 C.3       1 <0>        -0.0940
      5 C4          1.9070    0.0416   -3.8055 C.3       1 <0>         0.0861
      6 O1          1.2701    0.0275   -2.5263 O.3       1 <0>        -0.3444
      7 C5          0.0113   -0.4559   -2.4740 C.2       1 <0>         0.5234
      8 O2         -0.5301   -0.8545   -3.4882 O.2       1 <0>        -0.5178
      9 C6         -0.6789   -0.4993   -1.2400 C.2       1 <0>        -0.2584
     10 C7         -1.9324   -0.9837   -1.2023 C.2       1 <0>         0.2425
     11 N1         -2.6171   -1.0415   -0.0207 N.pl3     1 <0>        -0.6421
     12 C8         -1.9511   -0.9965    1.1748 C.2       1 <0>         0.2239
     13 C9         -0.6915   -0.5155    1.2396 C.2       1 <0>        -0.2761
     14 C10         0.0021   -0.0041    0.0020 C.3       1 <0>         0.0789
     15 H1          1.0375   -0.3754   -0.0009 H         1 <0>         0.0984
     16 C11        -0.0184    1.5028    0.0103 C.ar      1 <0>        -0.0303
     17 C12        -1.2248    2.1776    0.0197 C.ar      1 <0>        -0.1114
     18 C13        -1.2435    3.5598    0.0322 C.ar      1 <0>        -0.0730
     19 C14        -0.0559    4.2672    0.0251 C.ar      1 <0>        -0.1863
     20 C15         1.1505    3.5924    0.0100 C.ar      1 <0>        -0.0699
     21 C16         1.1693    2.2102    0.0028 C.ar      1 <0>        -0.0922
     22 C17        -0.0763    5.7740    0.0335 C.3       1 <0>         0.5078
     23 F1         -0.0952    6.2474   -1.2828 F         1 <0>        -0.1772
     24 F2         -1.2184    6.2212    0.7064 F         1 <0>        -0.1783
     25 F3          1.0658    6.2523    0.6847 F         1 <0>        -0.1771
     26 C18         0.0092   -0.4784    2.4578 C.2       1 <0>         0.4096
     27 O3          1.1380   -0.0294    2.4833 O.2       1 <0>        -0.4358
     28 C19        -0.6135   -0.9840    3.7305 C.3       1 <0>        -0.1291
     29 H2         -1.1026   -0.1478    4.2516 H         1 <0>         0.1436
     30 C20        -1.6302   -2.0779    3.3876 C.3       1 <0>        -0.0630
     31 H3         -1.1215   -2.9392    2.9300 H         1 <0>         0.0949
     32 C21        -2.6558   -1.4986    2.4107 C.3       1 <0>        -0.0955
     33 C22        -2.3350   -2.5428    4.6635 C.3       1 <0>        -0.1607
     34 C23         0.4577   -1.5534    4.6246 C.2       1 <0>         0.4778
     35 O4          0.4096   -2.7125    4.9623 O.2       1 <0>        -0.4986
     36 O5          1.4653   -0.7729    5.0457 O.3       1 <0>        -0.3378
     37 C24         2.4613   -1.3884    5.9044 C.3       1 <0>         0.0316
     38 C25        -2.5873   -1.4657   -2.4711 C.3       1 <0>        -0.1193
     39 H4          7.5560    1.8395   -6.0585 H         1 <0>         0.0754
     40 H5          6.0296    2.0505   -6.9817 H         1 <0>         0.0669
     41 H6          6.6752    0.4019   -6.6784 H         1 <0>         0.0667
     42 H7          6.2967    0.7030   -4.2363 H         1 <0>         0.0839
     43 H8          5.6511    2.3515   -4.5395 H         1 <0>         0.0841
     44 H9          3.9015   -0.0027   -2.9731 H         1 <0>         0.0936
     45 H10         3.2558    1.6458   -3.2764 H         1 <0>         0.0939
     46 H11         1.3225    0.6636   -4.4993 H         1 <0>         0.0780
     47 H12         1.9681   -0.9849   -4.1960 H         1 <0>         0.0778
     48 H13        -3.7139   -1.1250   -0.0241 H         1 <0>         0.4501
     49 H14        -2.1527    1.6249    0.0211 H         1 <0>         0.1227
     50 H15        -2.1860    4.0870    0.0437 H         1 <0>         0.1325
     51 H16         2.0784    4.1450    0.0041 H         1 <0>         0.1343
     52 H17         2.1118    1.6830   -0.0091 H         1 <0>         0.1353
     53 H18        -3.1893   -0.6659    2.8924 H         1 <0>         0.1078
     54 H19        -3.3755   -2.2816    2.1298 H         1 <0>         0.1035
     55 H20        -3.0641   -3.3279    4.4143 H         1 <0>         0.0664
     56 H21        -2.8564   -1.6914    5.1254 H         1 <0>         0.0586
     57 H22        -1.5912   -2.9433    5.3681 H         1 <0>         0.0832
     58 H23         3.2241   -0.6430    6.1739 H         1 <0>         0.1052
     59 H24         2.9379   -2.2248    5.3721 H         1 <0>         0.0645
     60 H25         1.9765   -1.7636    6.8177 H         1 <0>         0.0644
     61 H26        -3.6029   -1.8237   -2.2464 H         1 <0>         0.0657
     62 H27        -1.9953   -2.2877   -2.8999 H         1 <0>         0.1051
     63 H28        -2.6418   -0.6376   -3.1931 H         1 <0>         0.1035
@<TRIPOS>BOND
     1    1    2 1
     2    1   39 1
     3    1   40 1
     4    1   41 1
     5    2    3 1
     6    2   42 1
     7    2   43 1
     8    3    4 1
     9    4    5 1
    10    4   44 1
    11    4   45 1
    12    5    6 1
    13    5   46 1
    14    5   47 1
    15    6    7 1
    16    7    8 2
    17    7    9 1
    18    9   14 1
    19    9   10 2
    20   10   11 1
    21   10   38 1
    22   11   12 1
    23   11   48 1
    24   12   32 1
    25   12   13 2
    26   13   14 1
    27   13   26 1
    28   14   15 1
    29   14   16 1
    30   16   21 ar
    31   16   17 ar
    32   17   18 ar
    33   17   49 1
    34   18   19 ar
    35   18   50 1
    36   19   20 ar
    37   19   22 1
    38   20   21 ar
    39   20   51 1
    40   21   52 1
    41   22   23 1
    42   22   24 1
    43   22   25 1
    44   26   27 2
    45   26   28 1
    46   28   29 1
    47   28   30 1
    48   28   34 1
    49   30   31 1
    50   30   32 1
    51   30   33 1
    52   32   53 1
    53   32   54 1
    54   33   55 1
    55   33   56 1
    56   33   57 1
    57   34   35 2
    58   34   36 1
    59   36   37 1
    60   37   58 1
    61   37   59 1
    62   37   60 1
    63   38   61 1
    64   38   62 1
    65   38   63 1
