@<TRIPOS>MOLECULE
ZINC12503231
   51    52     0     0     0
SMALL
USER_CHARGES
N-[[4-(2,4-dichlorophenoxy)butanoylamino]carbamothioyl]-2-(2-methylphenoxy)acetamide
@<TRIPOS>ATOM
      1 C1          6.0862  -13.2729   -0.1333 C.3       1 <0>        -0.1111
      2 C2          4.6252  -12.9036   -0.1175 C.ar      1 <0>        -0.1056
      3 C3          3.6617  -13.8939   -0.1138 C.ar      1 <0>        -0.0825
      4 C4          2.3214  -13.5558   -0.0988 C.ar      1 <0>        -0.1485
      5 C5          1.9414  -12.2262   -0.0870 C.ar      1 <0>        -0.0871
      6 C6          2.9007  -11.2325   -0.0853 C.ar      1 <0>        -0.2066
      7 C7          4.2466  -11.5692   -0.1061 C.ar      1 <0>         0.1220
      8 O1          5.1924  -10.5933   -0.1098 O.3       1 <0>        -0.2841
      9 C8          4.7297   -9.2414   -0.0975 C.3       1 <0>         0.0474
     10 C9          5.9112   -8.3059   -0.1037 C.2       1 <0>         0.4880
     11 O2          7.0381   -8.7528   -0.1172 O.2       1 <0>        -0.3744
     12 N1          5.7151   -6.9725   -0.0941 N.am      1 <0>        -0.6446
     13 C10         6.7717   -6.1360   -0.0996 C.2       1 <0>         0.5153
     14 S1          8.3631   -6.7670   -0.1188 S.2       1 <0>        -0.4512
     15 N2          6.5756   -4.8026   -0.0901 N.pl3     1 <0>        -0.4575
     16 N3          5.2734   -4.2862   -0.0744 N.am      1 <0>        -0.5547
     17 C11         5.0773   -2.9528   -0.0648 C.2       1 <0>         0.5211
     18 O3          6.0281   -2.1999   -0.0698 O.2       1 <0>        -0.5083
     19 C12         3.6765   -2.3973   -0.0480 C.3       1 <0>        -0.1265
     20 C13         3.7342   -0.8684   -0.0398 C.3       1 <0>        -0.1080
     21 C14         2.3120   -0.3044   -0.0227 C.3       1 <0>         0.0568
     22 O4          2.3659    1.1235   -0.0150 O.3       1 <0>        -0.2959
     23 C15         1.1788    1.7859    0.0004 C.ar      1 <0>         0.1463
     24 C16        -0.0126    1.0758    0.0080 C.ar      1 <0>        -0.1874
     25 C17        -1.2181    1.7506    0.0173 C.ar      1 <0>        -0.0635
     26 C18        -1.2380    3.1341    0.0308 C.ar      1 <0>        -0.0631
     27 C19        -0.0511    3.8450    0.0233 C.ar      1 <0>        -0.0628
     28 C20         1.1574    3.1737    0.0081 C.ar      1 <0>        -0.0601
     29 Cl1         2.6467    4.0658   -0.0019 Cl        1 <0>        -0.0390
     30 Cl2        -2.7544    3.9791    0.0493 Cl        1 <0>        -0.0545
     31 H1          6.4480  -13.3679    0.8905 H         1 <0>         0.0711
     32 H2          6.2155  -14.2217   -0.6539 H         1 <0>         0.0667
     33 H3          6.6517  -12.4961   -0.6479 H         1 <0>         0.0746
     34 H4          3.9560  -14.9330   -0.1223 H         1 <0>         0.1318
     35 H5          1.5698  -14.3313   -0.0960 H         1 <0>         0.1259
     36 H6          0.8936  -11.9646   -0.0750 H         1 <0>         0.1259
     37 H7          2.6035  -10.1943   -0.0716 H         1 <0>         0.1261
     38 H8          4.1346   -9.0692    0.7993 H         1 <0>         0.0989
     39 H9          4.1172   -9.0590   -0.9805 H         1 <0>         0.0988
     40 H10         4.8134   -6.6150   -0.0833 H         1 <0>         0.4034
     41 H11         7.3361   -4.2005   -0.0940 H         1 <0>         0.4591
     42 H12         4.5129   -4.8883   -0.0704 H         1 <0>         0.4193
     43 H13         3.1580   -2.7461    0.8451 H         1 <0>         0.1090
     44 H14         3.1406   -2.7359   -0.9347 H         1 <0>         0.1090
     45 H15         4.2526   -0.5196   -0.9329 H         1 <0>         0.0893
     46 H16         4.2700   -0.5298    0.8470 H         1 <0>         0.0893
     47 H17         1.7936   -0.6533    0.8704 H         1 <0>         0.0696
     48 H18         1.7762   -0.6430   -0.9094 H         1 <0>         0.0696
     49 H19         0.0021   -0.0041    0.0020 H         1 <0>         0.1466
     50 H20        -2.1458    1.1976    0.0187 H         1 <0>         0.1440
     51 H21        -0.0687    4.9249    0.0289 H         1 <0>         0.1518
@<TRIPOS>BOND
     1    1    2 1
     2    1   31 1
     3    1   32 1
     4    1   33 1
     5    2    7 ar
     6    2    3 ar
     7    3    4 ar
     8    3   34 1
     9    4    5 ar
    10    4   35 1
    11    5    6 ar
    12    5   36 1
    13    6    7 ar
    14    6   37 1
    15    7    8 1
    16    8    9 1
    17    9   10 1
    18    9   38 1
    19    9   39 1
    20   10   11 2
    21   10   12 am
    22   12   13 1
    23   12   40 1
    24   13   14 2
    25   13   15 1
    26   15   16 1
    27   15   41 1
    28   16   17 am
    29   16   42 1
    30   17   18 2
    31   17   19 1
    32   19   20 1
    33   19   43 1
    34   19   44 1
    35   20   21 1
    36   20   45 1
    37   20   46 1
    38   21   22 1
    39   21   47 1
    40   21   48 1
    41   22   23 1
    42   23   28 ar
    43   23   24 ar
    44   24   25 ar
    45   24   49 1
    46   25   26 ar
    47   25   50 1
    48   26   27 ar
    49   26   30 1
    50   27   28 ar
    51   27   51 1
    52   28   29 1
