@<TRIPOS>MOLECULE
ZINC35041499
   78    81     0     0     0
SMALL
USER_CHARGES

@<TRIPOS>ATOM
      1 C1          8.0183  -16.1815   -0.2250 C.3       1 <0>        -0.1546
      2 C2          7.0247  -15.2686   -0.9462 C.3       1 <0>        -0.1252
      3 C3          6.8069  -13.9988   -0.1207 C.3       1 <0>        -0.1213
      4 C4          5.8133  -13.0859   -0.8419 C.3       1 <0>        -0.1135
      5 C5          5.5955  -11.8162   -0.0165 C.3       1 <0>        -0.0871
      6 C6          4.6168  -10.9169   -0.7268 C.ar      1 <0>        -0.0542
      7 C7          5.0766   -9.9785   -1.6335 C.ar      1 <0>        -0.1155
      8 C8          4.1860   -9.1522   -2.2871 C.ar      1 <0>        -0.0617
      9 C9          2.8184   -9.2646   -2.0320 C.ar      1 <0>        -0.1312
     10 C10         2.3611  -10.2134   -1.1161 C.ar      1 <0>        -0.1008
     11 C11         3.2619  -11.0373   -0.4735 C.ar      1 <0>        -0.1212
     12 C12         1.8582   -8.3820   -2.7285 C.2       1 <0>         0.5670
     13 O1          2.0658   -7.1859   -2.7891 O.2       1 <0>        -0.5194
     14 N1          0.7528   -8.9038   -3.2963 N.am      1 <0>        -0.5769
     15 C13        -0.1563   -8.0426   -4.0566 C.3       1 <0>         0.1232
     16 C14         0.3525   -7.9061   -5.4930 C.3       1 <0>        -0.1785
     17 C15         0.4604  -10.3321   -3.1531 C.3       1 <0>         0.1737
     18 H1          1.2812  -10.8202   -2.6276 H         1 <0>         0.1365
     19 C16         0.2964  -10.9605   -4.5384 C.3       1 <0>        -0.1525
     20 C17         1.6367  -10.9269   -5.2756 C.3       1 <0>        -0.1497
     21 C18        -0.8138  -10.5078   -2.3678 C.2       1 <0>         0.3758
     22 N2         -1.4088   -9.4468   -1.9134 N.2       1 <0>        -0.4943
     23 C19        -2.5590   -9.5276   -1.1991 C.ar      1 <0>         0.1482
     24 C20        -3.1995   -8.3868   -0.7105 C.ar      1 <0>        -0.1046
     25 C21        -4.3657   -8.5153    0.0096 C.ar      1 <0>        -0.0713
     26 C22        -4.9150   -9.7667    0.2574 C.ar      1 <0>        -0.1335
     27 C23        -4.3019  -10.9067   -0.2140 C.ar      1 <0>        -0.0411
     28 C24        -3.1205  -10.7988   -0.9452 C.ar      1 <0>        -0.1940
     29 C25        -2.4227  -11.9798   -1.4734 C.2       1 <0>         0.5498
     30 O2         -2.8536  -13.1035   -1.2900 O.2       1 <0>        -0.4926
     31 N3         -1.2851  -11.7692   -2.1759 N.am      1 <0>        -0.4901
     32 C26        -0.5838  -12.8610   -2.7060 C.ar      1 <0>         0.0661
     33 C27         0.6940  -13.1542   -2.2483 C.ar      1 <0>        -0.0768
     34 C28         1.3843  -14.2296   -2.7708 C.ar      1 <0>        -0.1323
     35 C29         0.8017  -15.0171   -3.7534 C.ar      1 <0>         0.1501
     36 C30        -0.4748  -14.7244   -4.2115 C.ar      1 <0>        -0.1943
     37 C31        -1.1687  -13.6532   -3.6850 C.ar      1 <0>        -0.0515
     38 O3          1.4821  -16.0756   -4.2679 O.3       1 <0>        -0.3090
     39 C32         0.8218  -16.8431   -5.2764 C.3       1 <0>         0.0514
     40 C33         1.7360  -17.9828   -5.7302 C.3       1 <0>        -0.1537
     41 H2          8.9678  -15.6604   -0.1027 H         1 <0>         0.0534
     42 H3          7.6216  -16.4485    0.7545 H         1 <0>         0.0533
     43 H4          8.1735  -17.0861   -0.8131 H         1 <0>         0.0536
     44 H5          7.4214  -15.0016   -1.9257 H         1 <0>         0.0609
     45 H6          6.0752  -15.7897   -1.0685 H         1 <0>         0.0613
     46 H7          6.4102  -14.2658    0.8588 H         1 <0>         0.0622
     47 H8          7.7564  -13.4777    0.0016 H         1 <0>         0.0624
     48 H9          6.2100  -12.8189   -1.8214 H         1 <0>         0.0652
     49 H10         4.8638  -13.6070   -0.9642 H         1 <0>         0.0643
     50 H11         5.1988  -12.0832    0.9630 H         1 <0>         0.0753
     51 H12         6.5450  -11.2950    0.1058 H         1 <0>         0.0765
     52 H13         6.1352   -9.8923   -1.8297 H         1 <0>         0.1313
     53 H14         4.5462   -8.4198   -2.9944 H         1 <0>         0.1325
     54 H15         1.3042  -10.3053   -0.9142 H         1 <0>         0.1194
     55 H16         2.9091  -11.7749    0.2321 H         1 <0>         0.1283
     56 H17        -1.1530   -8.4837   -4.0645 H         1 <0>         0.0791
     57 H18        -0.1984   -7.0579   -3.5909 H         1 <0>         0.0863
     58 H19        -0.3239   -7.2653   -6.0587 H         1 <0>         0.0664
     59 H20         1.3492   -7.4650   -5.4851 H         1 <0>         0.0609
     60 H21         0.3947   -8.8907   -5.9587 H         1 <0>         0.0628
     61 H22        -0.0338  -11.9938   -4.4320 H         1 <0>         0.0940
     62 H23        -0.4450  -10.3988   -5.1067 H         1 <0>         0.0781
     63 H24         1.5199  -11.3745   -6.2625 H         1 <0>         0.0632
     64 H25         1.9670   -9.8936   -5.3821 H         1 <0>         0.0641
     65 H26         2.3781  -11.4886   -4.7073 H         1 <0>         0.0583
     66 H27        -2.7817   -7.4084   -0.8965 H         1 <0>         0.1413
     67 H28        -4.8595   -7.6320    0.3870 H         1 <0>         0.1368
     68 H29        -5.8304   -9.8467    0.8247 H         1 <0>         0.1358
     69 H30        -4.7337  -11.8771   -0.0182 H         1 <0>         0.1390
     70 H31         1.1479  -12.5408   -1.4840 H         1 <0>         0.1331
     71 H32         2.3781  -14.4577   -2.4149 H         1 <0>         0.1434
     72 H33        -0.9275  -15.3373   -4.9768 H         1 <0>         0.1396
     73 H34        -2.1644  -13.4286   -4.0379 H         1 <0>         0.1315
     74 H35        -0.1016  -17.2572   -4.8715 H         1 <0>         0.0653
     75 H36         0.5903  -16.2023   -6.1272 H         1 <0>         0.0655
     76 H37         2.6594  -17.5687   -6.1351 H         1 <0>         0.0679
     77 H38         1.9676  -18.6236   -4.8794 H         1 <0>         0.0678
     78 H39         1.2324  -18.5682   -6.4995 H         1 <0>         0.0807
@<TRIPOS>BOND
     1    1    2 1
     2    1   41 1
     3    1   42 1
     4    1   43 1
     5    2    3 1
     6    2   44 1
     7    2   45 1
     8    3    4 1
     9    3   46 1
    10    3   47 1
    11    4    5 1
    12    4   48 1
    13    4   49 1
    14    5    6 1
    15    5   50 1
    16    5   51 1
    17    6   11 ar
    18    6    7 ar
    19    7    8 ar
    20    7   52 1
    21    8    9 ar
    22    8   53 1
    23    9   10 ar
    24    9   12 1
    25   10   11 ar
    26   10   54 1
    27   11   55 1
    28   12   13 2
    29   12   14 am
    30   14   15 1
    31   14   17 1
    32   15   16 1
    33   15   56 1
    34   15   57 1
    35   16   58 1
    36   16   59 1
    37   16   60 1
    38   17   18 1
    39   17   19 1
    40   17   21 1
    41   19   20 1
    42   19   61 1
    43   19   62 1
    44   20   63 1
    45   20   64 1
    46   20   65 1
    47   21   31 1
    48   21   22 2
    49   22   23 1
    50   23   28 ar
    51   23   24 ar
    52   24   25 ar
    53   24   66 1
    54   25   26 ar
    55   25   67 1
    56   26   27 ar
    57   26   68 1
    58   27   28 ar
    59   27   69 1
    60   28   29 1
    61   29   30 2
    62   29   31 am
    63   31   32 1
    64   32   37 ar
    65   32   33 ar
    66   33   34 ar
    67   33   70 1
    68   34   35 ar
    69   34   71 1
    70   35   36 ar
    71   35   38 1
    72   36   37 ar
    73   36   72 1
    74   37   73 1
    75   38   39 1
    76   39   40 1
    77   39   74 1
    78   39   75 1
    79   40   76 1
    80   40   77 1
    81   40   78 1
