@<TRIPOS>MOLECULE
ZINC36565003
   85    85     0     0     0
SMALL
USER_CHARGES

@<TRIPOS>ATOM
      1 C1          4.9148   -0.6537    1.5058 C.3       1 <0>        -0.1533
      2 C2          4.1775   -1.9701    1.2521 C.3       1 <0>        -0.1253
      3 C3          5.0261   -2.8632    0.3448 C.3       1 <0>        -0.1191
      4 C4          4.2888   -4.1796    0.0911 C.3       1 <0>        -0.1047
      5 C5          5.1373   -5.0728   -0.8162 C.3       1 <0>        -0.1073
      6 H1          5.3865   -4.5313   -1.7288 H         1 <0>         0.0938
      7 C6          6.4245   -5.4637   -0.0876 C.3       1 <0>        -0.1128
      8 C7          7.3672   -6.1724   -1.0623 C.3       1 <0>        -0.1571
      9 C8          4.3606   -6.3160   -1.1659 C.2       1 <0>         0.5298
     10 O1          3.8986   -7.0101   -0.2853 O.2       1 <0>        -0.5365
     11 N1          4.1793   -6.6564   -2.4573 N.am      1 <0>        -0.5940
     12 C9          4.6275   -5.7555   -3.5222 C.3       1 <0>         0.1156
     13 C10         3.5783   -4.6639   -3.7419 C.3       1 <0>        -0.1301
     14 C11         4.0014   -3.7788   -4.9160 C.3       1 <0>        -0.1415
     15 C12         3.5342   -7.9272   -2.7963 C.3       1 <0>         0.1773
     16 H2          2.7737   -8.1589   -2.0505 H         1 <0>         0.1128
     17 C13         4.5668   -9.0246   -2.8185 C.ar      1 <0>        -0.1577
     18 C14         5.8169   -8.7847   -3.3588 C.ar      1 <0>        -0.0475
     19 C15         6.7655   -9.7881   -3.3808 C.ar      1 <0>        -0.1962
     20 C16         6.4628  -11.0395   -2.8593 C.ar      1 <0>         0.2242
     21 C17         5.2061  -11.2771   -2.3173 C.ar      1 <0>        -0.1930
     22 C18         4.2640  -10.2675   -2.2934 C.ar      1 <0>        -0.0518
     23 N2          7.4197  -12.0567   -2.8803 N.pl3     1 <0>        -0.6365
     24 C19         8.7444  -11.8045   -3.4528 C.3       1 <0>         0.0919
     25 C20         7.0987  -13.3759   -2.3299 C.3       1 <0>         0.0918
     26 C21         2.8892   -7.8168   -4.1538 C.2       1 <0>         0.5084
     27 O2          2.9800   -6.7860   -4.7863 O.2       1 <0>        -0.5130
     28 N3          2.2114   -8.8636   -4.6650 N.am      1 <0>        -0.7133
     29 C22         1.5844   -8.7563   -5.9847 C.3       1 <0>         0.1786
     30 C23         0.5092   -7.6683   -5.9515 C.3       1 <0>        -0.1630
     31 C24         2.6455   -8.3931   -7.0254 C.3       1 <0>        -0.1623
     32 C25         0.9437  -10.0953   -6.3554 C.3       1 <0>        -0.1141
     33 C26         2.0358  -11.1530   -6.5269 C.3       1 <0>        -0.0656
     34 C27         2.9943  -11.0944   -5.3358 C.3       1 <0>        -0.1702
     35 C28         1.3952  -12.5406   -6.5982 C.3       1 <0>        -0.1424
     36 C29         2.8101  -10.8818   -7.8184 C.3       1 <0>        -0.1657
     37 H3          5.8700   -0.8595    1.9890 H         1 <0>         0.0534
     38 H4          5.0894   -0.1464    0.5570 H         1 <0>         0.0534
     39 H5          4.3103   -0.0174    2.1522 H         1 <0>         0.0533
     40 H6          4.0030   -2.4775    2.2009 H         1 <0>         0.0616
     41 H7          3.2224   -1.7643    0.7690 H         1 <0>         0.0606
     42 H8          5.2007   -2.3559   -0.6040 H         1 <0>         0.0625
     43 H9          5.9812   -3.0690    0.8279 H         1 <0>         0.0665
     44 H10         4.1142   -4.6870    1.0399 H         1 <0>         0.0731
     45 H11         3.3336   -3.9739   -0.3920 H         1 <0>         0.0631
     46 H12         6.9092   -4.5676    0.3000 H         1 <0>         0.0763
     47 H13         6.1854   -6.1335    0.7384 H         1 <0>         0.0710
     48 H14         8.2516   -6.5174   -0.5265 H         1 <0>         0.0566
     49 H15         6.8556   -7.0261   -1.5067 H         1 <0>         0.0565
     50 H16         7.6661   -5.4785   -1.8480 H         1 <0>         0.0544
     51 H17         5.5742   -5.2972   -3.2359 H         1 <0>         0.0611
     52 H18         4.7619   -6.3212   -4.4441 H         1 <0>         0.1001
     53 H19         2.6154   -5.1246   -3.9627 H         1 <0>         0.0872
     54 H20         3.4922   -4.0560   -2.8412 H         1 <0>         0.0459
     55 H21         5.0026   -3.3881   -4.7342 H         1 <0>         0.0462
     56 H22         4.0021   -4.3677   -5.8332 H         1 <0>         0.0574
     57 H23         3.3008   -2.9498   -5.0170 H         1 <0>         0.0501
     58 H24         6.0515   -7.8116   -3.7644 H         1 <0>         0.1189
     59 H25         7.7416   -9.6002   -3.8033 H         1 <0>         0.1215
     60 H26         4.9673  -12.2490   -1.9113 H         1 <0>         0.1230
     61 H27         3.2882  -10.4503   -1.8682 H         1 <0>         0.1196
     62 H28         9.4138  -11.4404   -2.6733 H         1 <0>         0.0489
     63 H29         9.1420  -12.7296   -3.8701 H         1 <0>         0.0669
     64 H30         8.6632  -11.0558   -4.2408 H         1 <0>         0.0688
     65 H31         6.6783  -14.0046   -3.1148 H         1 <0>         0.0490
     66 H32         8.0061  -13.8380   -1.9412 H         1 <0>         0.0667
     67 H33         6.3728  -13.2665   -1.5241 H         1 <0>         0.0693
     68 H34         2.1387   -9.6880   -4.1591 H         1 <0>         0.4053
     69 H35         0.9500   -6.7321   -5.6090 H         1 <0>         0.0772
     70 H36         0.0991   -7.5321   -6.9522 H         1 <0>         0.0630
     71 H37        -0.2876   -7.9656   -5.2697 H         1 <0>         0.0524
     72 H38         3.5840   -8.8879   -6.7754 H         1 <0>         0.0683
     73 H39         2.3141   -8.7193   -8.0112 H         1 <0>         0.0673
     74 H40         2.7942   -7.3133   -7.0311 H         1 <0>         0.0685
     75 H41         0.2611  -10.4031   -5.5633 H         1 <0>         0.0677
     76 H42         0.3920   -9.9879   -7.2893 H         1 <0>         0.0801
     77 H43         2.4546  -11.3451   -4.4225 H         1 <0>         0.0494
     78 H44         3.8048  -11.8074   -5.4862 H         1 <0>         0.0510
     79 H45         3.4061  -10.0889   -5.2500 H         1 <0>         0.0928
     80 H46         0.7124  -12.5824   -7.4468 H         1 <0>         0.0537
     81 H47         2.1732  -13.2942   -6.7204 H         1 <0>         0.0544
     82 H48         0.8436  -12.7338   -5.6782 H         1 <0>         0.0530
     83 H49         3.4846  -10.0389   -7.6674 H         1 <0>         0.0813
     84 H50         3.3880  -11.7658   -8.0880 H         1 <0>         0.0477
     85 H51         2.1094  -10.6475   -8.6197 H         1 <0>         0.0537
@<TRIPOS>BOND
     1    1    2 1
     2    1   37 1
     3    1   38 1
     4    1   39 1
     5    2    3 1
     6    2   40 1
     7    2   41 1
     8    3    4 1
     9    3   42 1
    10    3   43 1
    11    4    5 1
    12    4   44 1
    13    4   45 1
    14    5    6 1
    15    5    7 1
    16    5    9 1
    17    7    8 1
    18    7   46 1
    19    7   47 1
    20    8   48 1
    21    8   49 1
    22    8   50 1
    23    9   10 2
    24    9   11 am
    25   11   12 1
    26   11   15 1
    27   12   13 1
    28   12   51 1
    29   12   52 1
    30   13   14 1
    31   13   53 1
    32   13   54 1
    33   14   55 1
    34   14   56 1
    35   14   57 1
    36   15   16 1
    37   15   17 1
    38   15   26 1
    39   17   22 ar
    40   17   18 ar
    41   18   19 ar
    42   18   58 1
    43   19   20 ar
    44   19   59 1
    45   20   21 ar
    46   20   23 1
    47   21   22 ar
    48   21   60 1
    49   22   61 1
    50   23   24 1
    51   23   25 1
    52   24   62 1
    53   24   63 1
    54   24   64 1
    55   25   65 1
    56   25   66 1
    57   25   67 1
    58   26   27 2
    59   26   28 am
    60   28   29 1
    61   28   68 1
    62   29   30 1
    63   29   31 1
    64   29   32 1
    65   30   69 1
    66   30   70 1
    67   30   71 1
    68   31   72 1
    69   31   73 1
    70   31   74 1
    71   32   33 1
    72   32   75 1
    73   32   76 1
    74   33   34 1
    75   33   35 1
    76   33   36 1
    77   34   77 1
    78   34   78 1
    79   34   79 1
    80   35   80 1
    81   35   81 1
    82   35   82 1
    83   36   83 1
    84   36   84 1
    85   36   85 1
