@<TRIPOS>MOLECULE
ZINC09068440
   55    59     0     0     0
SMALL
USER_CHARGES
(5R)-1-(6-ethoxy-1,3-benzothiazol-2-yl)-4-(4-fluorobenzoyl)-3-hydroxy-5-(p-tolyl)-5H-pyrrol-2-one
@<TRIPOS>ATOM
      1 C1          1.3964    2.8231  -10.6665 C.3       1 <0>        -0.1542
      2 C2          1.1507    2.3954   -9.2182 C.3       1 <0>         0.0519
      3 O1          2.2719    2.7686   -8.4146 O.3       1 <0>        -0.3112
      4 C3          2.2138    2.4587   -7.0919 C.ar      1 <0>         0.1305
      5 C4          1.1006    1.8069   -6.5695 C.ar      1 <0>        -0.1862
      6 C5          1.0168    1.4854   -5.2508 C.ar      1 <0>        -0.0334
      7 C6          2.0651    1.8046   -4.3570 C.ar      1 <0>         0.0845
      8 C7          3.1827    2.4666   -4.9148 C.ar      1 <0>        -0.1412
      9 C8          3.2632    2.7889   -6.2468 C.ar      1 <0>        -0.0912
     10 S1          4.2366    2.6869   -3.5017 S.3       1 <0>         0.0565
     11 C9          3.1689    1.9043   -2.3010 C.2       1 <0>         0.4054
     12 N1          2.1348    1.5565   -3.0303 N.2       1 <0>        -0.5384
     13 N2          3.3772    1.7179   -0.9453 N.am      1 <0>        -0.5050
     14 C10         2.4506    1.0687   -0.0106 C.3       1 <0>         0.2680
     15 H1          2.2415    0.0406   -0.3411 H         1 <0>         0.0865
     16 C11         3.1213    1.1084    1.3427 C.2       1 <0>        -0.4841
     17 C12         4.3140    1.7257    1.1694 C.2       1 <0>         0.2726
     18 C13         4.4646    2.1002   -0.2515 C.2       1 <0>         0.5127
     19 O2          5.4284    2.6696   -0.7240 O.2       1 <0>        -0.4854
     20 O3          5.2230    1.9623    2.1430 O.3       1 <0>        -0.6334
     21 C14         2.5846    0.5805    2.6004 C.2       1 <0>         0.5083
     22 O4          2.3036    1.3403    3.5085 O.2       1 <0>        -0.4619
     23 C15         2.3849   -0.8740    2.7657 C.ar      1 <0>        -0.1478
     24 C16         2.8114   -1.7578    1.7710 C.ar      1 <0>        -0.0370
     25 C17         2.6273   -3.1139    1.9328 C.ar      1 <0>        -0.1683
     26 C18         2.0106   -3.6012    3.0756 C.ar      1 <0>         0.1097
     27 C19         1.5802   -2.7281    4.0635 C.ar      1 <0>        -0.1685
     28 C20         1.7638   -1.3705    3.9147 C.ar      1 <0>        -0.0444
     29 F1          1.8280   -4.9312    3.2267 F         1 <0>        -0.1426
     30 C21         1.1469    1.8233    0.0349 C.ar      1 <0>        -0.0726
     31 C22        -0.0509    1.1334    0.0504 C.ar      1 <0>        -0.0974
     32 C23        -1.2468    1.8257    0.0863 C.ar      1 <0>        -0.1211
     33 C24        -1.2448    3.2077    0.1178 C.ar      1 <0>        -0.0942
     34 C25        -0.0470    3.8976    0.1019 C.ar      1 <0>        -0.1190
     35 C26         1.1489    3.2054    0.0606 C.ar      1 <0>        -0.0879
     36 C27        -2.5484    3.9623    0.1633 C.3       1 <0>        -0.1107
     37 H2          0.5334    2.5358  -11.2851 H         1 <0>         0.0784
     38 H3          2.3015    2.3269  -11.0468 H         1 <0>         0.0668
     39 H4          1.5310    3.9140  -10.7088 H         1 <0>         0.0668
     40 H5          0.2456    2.8916   -8.8379 H         1 <0>         0.0636
     41 H6          1.0161    1.3045   -9.1758 H         1 <0>         0.0636
     42 H7          0.2836    1.5498   -7.2274 H         1 <0>         0.1335
     43 H8          0.1372    0.9794   -4.8810 H         1 <0>         0.1333
     44 H9          4.1357    3.2945   -6.6333 H         1 <0>         0.1375
     45 H10         3.2877   -1.3792    0.8787 H         1 <0>         0.1429
     46 H11         2.9602   -3.7983    1.1665 H         1 <0>         0.1363
     47 H12         1.1005   -3.1129    4.9514 H         1 <0>         0.1354
     48 H13         1.4279   -0.6915    4.6845 H         1 <0>         0.1406
     49 H14        -0.0524    0.0536    0.0300 H         1 <0>         0.1188
     50 H15        -2.1827    1.2868    0.0939 H         1 <0>         0.1165
     51 H16        -0.0455    4.9774    0.1220 H         1 <0>         0.1154
     52 H17         2.0846    3.7444    0.0482 H         1 <0>         0.1103
     53 H18        -2.3458    5.0433    0.1836 H         1 <0>         0.0609
     54 H19        -3.1060    3.6767    1.0675 H         1 <0>         0.0657
     55 H20        -3.1449    3.7177   -0.7279 H         1 <0>         0.0641
@<TRIPOS>BOND
     1    1    2 1
     2    1   37 1
     3    1   38 1
     4    1   39 1
     5    2    3 1
     6    2   40 1
     7    2   41 1
     8    3    4 1
     9    4    9 ar
    10    4    5 ar
    11    5    6 ar
    12    5   42 1
    13    6    7 ar
    14    6   43 1
    15    7   12 1
    16    7    8 ar
    17    8    9 ar
    18    8   10 1
    19    9   44 1
    20   10   11 1
    21   11   12 2
    22   11   13 1
    23   13   18 am
    24   13   14 1
    25   14   15 1
    26   14   16 1
    27   14   30 1
    28   16   17 2
    29   16   21 1
    30   17   18 1
    31   17   20 1
    32   18   19 2
    33   21   22 2
    34   21   23 1
    35   23   28 ar
    36   23   24 ar
    37   24   25 ar
    38   24   45 1
    39   25   26 ar
    40   25   46 1
    41   26   27 ar
    42   26   29 1
    43   27   28 ar
    44   27   47 1
    45   28   48 1
    46   30   35 ar
    47   30   31 ar
    48   31   32 ar
    49   31   49 1
    50   32   33 ar
    51   32   50 1
    52   33   34 ar
    53   33   36 1
    54   34   35 ar
    55   34   51 1
    56   35   52 1
    57   36   53 1
    58   36   54 1
    59   36   55 1
