@<TRIPOS>MOLECULE
ZINC09031870
   66    70     0     0     0
SMALL
USER_CHARGES

@<TRIPOS>ATOM
      1 C1          1.3318   -1.3003    2.3924 C.3       1 <0>        -0.1516
      2 C2          0.5975   -1.2482    1.0512 C.3       1 <0>        -0.1251
      3 C3          1.4246   -1.9742   -0.0117 C.3       1 <0>         0.0553
      4 O1          0.7388   -1.9256   -1.2644 O.3       1 <0>        -0.3070
      5 C4          1.3428   -2.5288   -2.3225 C.ar      1 <0>         0.1597
      6 C5          2.5673   -3.1591   -2.1552 C.ar      1 <0>        -0.1995
      7 C6          3.1808   -3.7723   -3.2296 C.ar      1 <0>        -0.0507
      8 C7          2.5722   -3.7581   -4.4771 C.ar      1 <0>         0.0457
      9 C8          1.3470   -3.1273   -4.6440 C.ar      1 <0>        -0.0506
     10 C9          0.7316   -2.5189   -3.5679 C.ar      1 <0>        -0.1393
     11 N1          3.1957   -4.3808   -5.5694 N.am      1 <0>        -0.5042
     12 C10         3.6783   -3.6973   -6.6144 C.2       1 <0>         0.5244
     13 O2          3.6390   -2.4926   -6.7442 O.2       1 <0>        -0.4270
     14 C11         4.2811   -4.6666   -7.6077 C.3       1 <0>        -0.1226
     15 C12         4.0608   -6.0434   -6.9486 C.3       1 <0>        -0.1899
     16 H1          3.4295   -6.6725   -7.5760 H         1 <0>         0.1691
     17 C13         3.3617   -5.7068   -5.6494 C.2       1 <0>         0.5323
     18 O3          3.0060   -6.5107   -4.8147 O.2       1 <0>        -0.4593
     19 S1          5.6491   -6.8576   -6.6246 S.3       1 <0>         0.1759
     20 C14         5.1965   -8.4495   -6.0197 C.cat     1 <0>         0.5002
     21 N2          3.9372   -8.7706   -5.9071 N.pl3     1 <0>        -0.7290
     22 N3          6.1723   -9.3546   -5.6659 N.pl3     1 <0>        -0.4056
     23 C15         5.9342  -10.7138   -5.1546 C.3       1 <0>         0.1329
     24 H2          5.4013  -11.3134   -5.8926 H         1 <0>         0.1274
     25 C16         7.3544  -11.2687   -4.9280 C.3       1 <0>        -0.1338
     26 C17         8.2603  -10.1329   -5.3470 C.2       1 <0>         0.2272
     27 N4          7.5463   -9.1352   -5.7392 N.2       1 <0>        -0.2666
     28 C18         9.7345  -10.1650   -5.3175 C.ar      1 <0>        -0.0743
     29 C19        10.4029  -11.3117   -4.8821 C.ar      1 <0>        -0.0715
     30 C20        11.7818  -11.3347   -4.8576 C.ar      1 <0>        -0.1210
     31 C21        12.5029  -10.2254   -5.2626 C.ar      1 <0>        -0.0757
     32 C22        11.8475   -9.0861   -5.6951 C.ar      1 <0>        -0.1232
     33 C23        10.4690   -9.0508   -5.7303 C.ar      1 <0>        -0.0638
     34 C24         5.1669  -10.6660   -3.8584 C.ar      1 <0>        -0.1490
     35 C25         5.4356   -9.6755   -2.9323 C.ar      1 <0>        -0.0998
     36 C26         4.7318   -9.6317   -1.7434 C.ar      1 <0>        -0.1065
     37 C27         3.7589  -10.5779   -1.4807 C.ar      1 <0>        -0.0911
     38 C28         3.4896  -11.5679   -2.4073 C.ar      1 <0>        -0.1083
     39 C29         4.1904  -11.6092   -3.5981 C.ar      1 <0>        -0.0993
     40 H3          1.4729   -2.3396    2.6892 H         1 <0>         0.0578
     41 H4          2.3030   -0.8154    2.2940 H         1 <0>         0.0588
     42 H5          0.7425   -0.7831    3.1496 H         1 <0>         0.0690
     43 H6         -0.3738   -1.7331    1.1496 H         1 <0>         0.0760
     44 H7          0.4563   -0.2089    0.7544 H         1 <0>         0.0769
     45 H8          2.3959   -1.4893   -0.1101 H         1 <0>         0.0668
     46 H9          1.5658   -3.0135    0.2851 H         1 <0>         0.0654
     47 H10         3.0409   -3.1698   -1.1847 H         1 <0>         0.1404
     48 H11         4.1343   -4.2626   -3.0993 H         1 <0>         0.1281
     49 H12         0.8731   -3.1160   -5.6144 H         1 <0>         0.1365
     50 H13        -0.2236   -2.0317   -3.6968 H         1 <0>         0.1465
     51 H14         3.7594   -4.6108   -8.5631 H         1 <0>         0.1589
     52 H15         5.3452   -4.4698   -7.7385 H         1 <0>         0.1426
     53 H16         3.6880   -9.6470   -5.5742 H         1 <0>         0.4309
     54 H17         7.5068  -11.5113   -3.8764 H         1 <0>         0.1322
     55 H18         7.5265  -12.1453   -5.5525 H         1 <0>         0.1345
     56 H19         9.8413  -12.1780   -4.5651 H         1 <0>         0.1333
     57 H20        12.2999  -12.2206   -4.5213 H         1 <0>         0.1379
     58 H21        13.5824  -10.2487   -5.2407 H         1 <0>         0.1357
     59 H22        12.4166   -8.2237   -6.0094 H         1 <0>         0.1367
     60 H23         9.9588   -8.1625   -6.0723 H         1 <0>         0.1352
     61 H24         6.1957   -8.9362   -3.1375 H         1 <0>         0.1172
     62 H25         4.9422   -8.8583   -1.0195 H         1 <0>         0.1314
     63 H26         3.2095  -10.5441   -0.5515 H         1 <0>         0.1343
     64 H27         2.7297  -12.3074   -2.2019 H         1 <0>         0.1365
     65 H28         3.9774  -12.3803   -4.3235 H         1 <0>         0.1334
     66 H29         3.2499   -8.1331   -6.1563 H         1 <0>         0.4424
@<TRIPOS>BOND
     1    1    2 1
     2    1   40 1
     3    1   41 1
     4    1   42 1
     5    2    3 1
     6    2   43 1
     7    2   44 1
     8    3    4 1
     9    3   45 1
    10    3   46 1
    11    4    5 1
    12    5   10 ar
    13    5    6 ar
    14    6    7 ar
    15    6   47 1
    16    7    8 ar
    17    7   48 1
    18    8    9 ar
    19    8   11 1
    20    9   10 ar
    21    9   49 1
    22   10   50 1
    23   11   17 am
    24   11   12 am
    25   12   13 2
    26   12   14 1
    27   14   15 1
    28   14   51 1
    29   14   52 1
    30   15   16 1
    31   15   17 1
    32   15   19 1
    33   17   18 2
    34   19   20 1
    35   20   21 2
    36   20   22 1
    37   21   53 1
    38   21   66 1
    39   22   27 1
    40   22   23 1
    41   23   24 1
    42   23   25 1
    43   23   34 1
    44   25   26 1
    45   25   54 1
    46   25   55 1
    47   26   27 2
    48   26   28 1
    49   28   33 ar
    50   28   29 ar
    51   29   30 ar
    52   29   56 1
    53   30   31 ar
    54   30   57 1
    55   31   32 ar
    56   31   58 1
    57   32   33 ar
    58   32   59 1
    59   33   60 1
    60   34   39 ar
    61   34   35 ar
    62   35   36 ar
    63   35   61 1
    64   36   37 ar
    65   36   62 1
    66   37   38 ar
    67   37   63 1
    68   38   39 ar
    69   38   64 1
    70   39   65 1
