@<TRIPOS>MOLECULE
ZINC02644188
   50    52     0     0     0
SMALL
USER_CHARGES
ethyl 2-[2-[(5-anilino-1,3,4-thiadiazol-2-yl)sulfanyl]acetyl]amino-5-carbamoyl-4-methyl-thiophene-3-carboxylate
@<TRIPOS>ATOM
      1 C1         -4.0056   -2.1258    3.3248 C.3       1 <0>        -0.1538
      2 C2         -3.2853   -1.8565    2.0021 C.3       1 <0>         0.0579
      3 O1         -2.0821   -1.0841    2.2548 O.3       1 <0>        -0.3487
      4 C3         -1.3269   -0.7600    1.1857 C.2       1 <0>         0.5308
      5 O2         -1.6653   -1.1137    0.0726 O.2       1 <0>        -0.4868
      6 C4         -0.0968    0.0193    1.3656 C.2       1 <0>        -0.2142
      7 C5          1.1221   -0.6049    1.5850 C.2       1 <0>         0.0253
      8 C6          2.2240    0.1904    1.7437 C.2       1 <0>        -0.2961
      9 S1          1.5489    1.8327    1.5843 S.3       1 <0>         0.2970
     10 C7         -0.1134    1.4174    1.3220 C.2       1 <0>         0.0998
     11 N1         -1.1885    2.2594    1.1149 N.am      1 <0>        -0.6079
     12 C8         -1.0068    3.5949    1.1068 C.2       1 <0>         0.5362
     13 O3          0.1006    4.0572    1.2814 O.2       1 <0>        -0.4757
     14 C9         -2.1799    4.5136    0.8808 C.3       1 <0>        -0.1610
     15 S2         -1.6157    6.2370    0.9264 S.3       1 <0>         0.1415
     16 C10        -3.0826    7.1732    0.6500 C.2       1 <0>         0.0216
     17 N2         -4.3179    6.7532    0.4529 N.2       1 <0>        -0.2765
     18 N3         -5.3276    7.6664    0.2552 N.2       1 <0>        -0.3526
     19 C11        -5.0564    8.9569    0.2636 C.2       1 <0>         0.3373
     20 S3         -3.2966    8.9448    0.5695 S.3       1 <0>         0.0295
     21 N4         -5.9124   10.0382    0.0866 N.pl3     1 <0>        -0.6040
     22 C12        -7.2903    9.8295   -0.0126 C.ar      1 <0>         0.1528
     23 C13        -8.0853   10.7415   -0.6955 C.ar      1 <0>        -0.1464
     24 C14        -9.4462   10.5293   -0.7962 C.ar      1 <0>        -0.0932
     25 C15       -10.0193    9.4162   -0.2087 C.ar      1 <0>        -0.1351
     26 C16        -9.2317    8.5090    0.4763 C.ar      1 <0>        -0.0910
     27 C17        -7.8695    8.7123    0.5763 C.ar      1 <0>        -0.1319
     28 C18         3.6125   -0.2081    1.9837 C.2       1 <0>         0.6159
     29 O4          3.9018   -1.3877    2.0650 O.2       1 <0>        -0.5245
     30 N5          4.5702    0.7311    2.1146 N.am      1 <0>        -0.8480
     31 C19         1.2290   -2.1069    1.6471 C.3       1 <0>        -0.1168
     32 H1         -3.3475   -2.6855    3.9894 H         1 <0>         0.0690
     33 H2         -4.2736   -1.1783    3.7921 H         1 <0>         0.0672
     34 H3         -4.9089   -2.7057    3.1351 H         1 <0>         0.0830
     35 H4         -3.9434   -1.2968    1.3374 H         1 <0>         0.0721
     36 H5         -3.0174   -2.8040    1.5347 H         1 <0>         0.0741
     37 H6         -2.0743    1.8896    0.9752 H         1 <0>         0.4275
     38 H7         -2.6246    4.3024   -0.0916 H         1 <0>         0.1403
     39 H8         -2.9225    4.3536    1.6625 H         1 <0>         0.1405
     40 H9         -5.5530   10.9375    0.0320 H         1 <0>         0.4315
     41 H10        -7.6390   11.6135   -1.1504 H         1 <0>         0.1281
     42 H11       -10.0642   11.2359   -1.3301 H         1 <0>         0.1299
     43 H12       -11.0845    9.2552   -0.2849 H         1 <0>         0.1262
     44 H13        -9.6825    7.6408    0.9338 H         1 <0>         0.1282
     45 H14        -7.2550    8.0039    1.1120 H         1 <0>         0.1403
     46 H15         4.3397    1.6711    2.0498 H         1 <0>         0.4002
     47 H16         5.4899    0.4671    2.2735 H         1 <0>         0.4118
     48 H17         1.4220   -2.4989    0.6485 H         1 <0>         0.0839
     49 H18         2.0471   -2.3857    2.3112 H         1 <0>         0.1019
     50 H19         0.2954   -2.5222    2.0263 H         1 <0>         0.0629
@<TRIPOS>BOND
     1    1    2 1
     2    1   32 1
     3    1   33 1
     4    1   34 1
     5    2    3 1
     6    2   35 1
     7    2   36 1
     8    3    4 1
     9    4    5 2
    10    4    6 1
    11    6   10 2
    12    6    7 1
    13    7    8 2
    14    7   31 1
    15    8    9 1
    16    8   28 1
    17    9   10 1
    18   10   11 1
    19   11   12 am
    20   11   37 1
    21   12   13 2
    22   12   14 1
    23   14   15 1
    24   14   38 1
    25   14   39 1
    26   15   16 1
    27   16   20 1
    28   16   17 2
    29   17   18 1
    30   18   19 2
    31   19   20 1
    32   19   21 1
    33   21   22 1
    34   21   40 1
    35   22   27 ar
    36   22   23 ar
    37   23   24 ar
    38   23   41 1
    39   24   25 ar
    40   24   42 1
    41   25   26 ar
    42   25   43 1
    43   26   27 ar
    44   26   44 1
    45   27   45 1
    46   28   29 2
    47   28   30 am
    48   30   46 1
    49   30   47 1
    50   31   48 1
    51   31   49 1
    52   31   50 1
