@<TRIPOS>MOLECULE
ZINC12546679
   56    59     0     0     0
SMALL
USER_CHARGES
[2-(1H-indol-3-yl)-2-oxo-ethyl] 2-[[4-(2-furylmethylamino)-3-nitro-phenyl]sulfonylamino]acetate
@<TRIPOS>ATOM
      1 C1         -2.5216   -3.2853    0.7339 C.ar      1 <0>        -0.1295
      2 C2         -1.2812   -3.8854    0.8945 C.ar      1 <0>        -0.0999
      3 C3         -0.1438   -3.1203    1.0323 C.ar      1 <0>        -0.1197
      4 C4         -0.2336   -1.7320    1.0105 C.ar      1 <0>         0.0734
      5 C5         -1.4895   -1.1272    0.8474 C.ar      1 <0>        -0.0551
      6 C6         -2.6309   -1.9118    0.7099 C.ar      1 <0>        -0.0723
      7 C7         -1.2417    0.3278    0.8676 C.2       1 <0>        -0.2759
      8 C8          0.1174    0.4837    1.0380 C.2       1 <0>         0.1417
      9 N1          0.7043   -0.7255    1.1212 N.pl3     1 <0>        -0.5639
     10 H1          1.6559   -0.8694    1.2427 H         1 <0>         0.4244
     11 C9         -2.2063    1.3574    0.7328 C.2       1 <0>         0.4250
     12 O1         -3.3776    1.0760    0.5820 O.2       1 <0>        -0.4412
     13 C10        -1.7780    2.8016    0.7768 C.3       1 <0>         0.0348
     14 O2         -2.9409    3.6564    0.6176 O.3       1 <0>        -0.3314
     15 C11        -2.7298    4.9819    0.6341 C.2       1 <0>         0.4645
     16 O3         -1.6104    5.4136    0.7769 O.2       1 <0>        -0.4960
     17 C12        -3.8890    5.9315    0.4746 C.3       1 <0>         0.1244
     18 N2         -3.4004    7.3117    0.5270 N.pl3     1 <0>        -1.1113
     19 S1         -4.3696    8.5531    0.0155 S.o2      1 <0>         2.7086
     20 O4         -3.6329    9.7519    0.2141 O.2       1 <0>        -0.9400
     21 O5         -4.8788    8.1736   -1.2558 O.2       1 <0>        -0.9425
     22 C13        -5.7487    8.6224    1.1100 C.ar      1 <0>        -0.7379
     23 C14        -6.8904    7.8944    0.8283 C.ar      1 <0>         0.0639
     24 C15        -7.9708    7.9419    1.6869 C.ar      1 <0>        -0.2104
     25 C16        -7.9143    8.7311    2.8289 C.ar      1 <0>         0.3237
     26 C17        -6.7684    9.4654    3.1058 C.ar      1 <0>        -0.1339
     27 C18        -5.6891    9.4088    2.2457 C.ar      1 <0>         0.0944
     28 N3         -6.7039   10.3078    4.3210 N.pl3     1 <0>         0.0333
     29 O6         -6.1381   11.3859    4.2853 O.2       1 <0>        -0.1353
     30 O7         -7.2166    9.9231    5.3567 O.3       1 <0>        -0.1740
     31 N4         -9.0073    8.7856    3.6968 N.pl3     1 <0>        -0.7134
     32 C19       -10.1636    7.9140    3.4743 C.3       1 <0>         0.1983
     33 C20       -11.1965    8.1672    4.5420 C.2       1 <0>        -0.0540
     34 C21       -12.1940    9.0671    4.4739 C.2       1 <0>        -0.1713
     35 C22       -12.9176    8.9688    5.6845 C.2       1 <0>        -0.2194
     36 C23       -12.3191    8.0147    6.4200 C.2       1 <0>        -0.0151
     37 O8        -11.2807    7.5287    5.7205 O.3       1 <0>        -0.1679
     38 H2         -3.4053   -3.8970    0.6277 H         1 <0>         0.1288
     39 H3         -1.2066   -4.9626    0.9121 H         1 <0>         0.1303
     40 H4          0.8168   -3.5979    1.1575 H         1 <0>         0.1246
     41 H5         -3.5974   -1.4464    0.5846 H         1 <0>         0.1342
     42 H6          0.6328    1.4310    1.0959 H         1 <0>         0.1874
     43 H7         -1.3413    2.9931    1.6558 H         1 <0>         0.0924
     44 H8         -1.0712    2.9957   -0.0300 H         1 <0>         0.1055
     45 H9         -4.3746    5.7542   -0.4851 H         1 <0>         0.1309
     46 H10        -4.6054    5.7689    1.2798 H         1 <0>         0.1148
     47 H11        -2.5091    7.4983    0.8613 H         1 <0>         0.4316
     48 H12        -6.9354    7.2848   -0.0621 H         1 <0>         0.1623
     49 H13        -8.8604    7.3697    1.4686 H         1 <0>         0.1575
     50 H14        -4.7978    9.9798    2.4602 H         1 <0>         0.1653
     51 H15        -9.0008    9.4006    4.4469 H         1 <0>         0.4187
     52 H16       -10.5940    8.1243    2.4952 H         1 <0>         0.1058
     53 H17        -9.8464    6.8720    3.5154 H         1 <0>         0.0953
     54 H18       -12.4018    9.7367    3.6524 H         1 <0>         0.1520
     55 H19       -13.7844    9.5487    5.9651 H         1 <0>         0.1544
     56 H20       -12.6249    7.6908    7.4039 H         1 <0>         0.2093
@<TRIPOS>BOND
     1    1    6 ar
     2    1    2 ar
     3    1   38 1
     4    2    3 ar
     5    2   39 1
     6    3    4 ar
     7    3   40 1
     8    4    9 1
     9    4    5 ar
    10    5    6 ar
    11    5    7 1
    12    6   41 1
    13    7    8 2
    14    7   11 1
    15    8    9 1
    16    8   42 1
    17    9   10 1
    18   11   12 2
    19   11   13 1
    20   13   14 1
    21   13   43 1
    22   13   44 1
    23   14   15 1
    24   15   16 2
    25   15   17 1
    26   17   18 1
    27   17   45 1
    28   17   46 1
    29   18   19 1
    30   18   47 1
    31   19   20 2
    32   19   21 2
    33   19   22 1
    34   22   27 ar
    35   22   23 ar
    36   23   24 ar
    37   23   48 1
    38   24   25 ar
    39   24   49 1
    40   25   26 ar
    41   25   31 1
    42   26   27 ar
    43   26   28 1
    44   27   50 1
    45   28   29 2
    46   28   30 1
    47   31   32 1
    48   31   51 1
    49   32   33 1
    50   32   52 1
    51   32   53 1
    52   33   37 1
    53   33   34 2
    54   34   35 1
    55   34   54 1
    56   35   36 2
    57   35   55 1
    58   36   37 1
    59   36   56 1
