@<TRIPOS>MOLECULE
ZINC33312166
   53    55     0     0     0
SMALL
USER_CHARGES
N-(4-bromophenyl)-4-[[(3R)-3-methyl-1-piperidyl]methyl]piperidine-1-carboxamide
@<TRIPOS>ATOM
      1 C1          0.7061   -0.0493    2.7589 C.3       1 <0>        -0.1547
      2 C2          0.6435   -0.7822    1.4173 C.3       1 <0>        -0.1092
      3 H1         -0.2957   -1.3517    1.3573 H         1 <0>         0.0946
      4 C3          1.8332   -1.7392    1.3007 C.3       1 <0>        -0.1368
      5 C4          1.7949   -2.4237   -0.0684 C.3       1 <0>        -0.1464
      6 C5          1.8182   -1.3583   -1.1668 C.3       1 <0>        -0.0116
      7 N1          0.6602   -0.4687   -1.0120 N.4       1 <0>        -0.3956
      8 C6          0.7000    0.2356    0.2759 C.3       1 <0>        -0.0069
      9 C7          0.5731    0.4813   -2.1291 C.3       1 <0>        -0.0051
     10 C8          1.8167    1.3726   -2.1387 C.3       1 <0>        -0.1134
     11 C9          1.4289    2.7841   -2.5855 C.3       1 <0>        -0.1316
     12 C10         2.6698    3.6821   -2.5606 C.3       1 <0>         0.1087
     13 N2          3.7212    3.0587   -3.3757 N.am      1 <0>        -0.6282
     14 C11         4.1075    1.6704   -3.0889 C.3       1 <0>         0.1248
     15 C12         2.8506    0.7949   -3.1079 C.3       1 <0>        -0.1440
     16 C13         4.3202    3.7473   -4.3674 C.2       1 <0>         0.7115
     17 O1          5.0871    3.1820   -5.1229 O.2       1 <0>        -0.5609
     18 N3          4.0692    5.0624   -4.5217 N.am      1 <0>        -0.6920
     19 C14         4.8149    5.8146   -5.4370 C.ar      1 <0>         0.1772
     20 C15         5.4320    5.1891   -6.5122 C.ar      1 <0>        -0.1376
     21 C16         6.1628    5.9344   -7.4166 C.ar      1 <0>        -0.0676
     22 C17         6.2897    7.3015   -7.2458 C.ar      1 <0>        -0.1108
     23 C18         5.6802    7.9266   -6.1724 C.ar      1 <0>        -0.0666
     24 C19         4.9435    7.1869   -5.2682 C.ar      1 <0>        -0.1484
     25 Br1         7.2975    8.3176   -8.4818 Br        1 <0>        -0.0456
     26 H2          0.6654   -0.7814    3.5789 H         1 <0>         0.0782
     27 H3         -0.1472    0.6401    2.8402 H         1 <0>         0.0687
     28 H4          1.6450    0.5203    2.8221 H         1 <0>         0.0665
     29 H5          2.7706   -1.1732    1.4048 H         1 <0>         0.0808
     30 H6          1.7728   -2.4978    2.0950 H         1 <0>         0.0948
     31 H7          2.6704   -3.0812   -0.1742 H         1 <0>         0.1126
     32 H8          0.8753   -3.0211   -0.1541 H         1 <0>         0.0888
     33 H9          2.7447   -0.7706   -1.0879 H         1 <0>         0.1281
     34 H10         1.7762   -1.8462   -2.1518 H         1 <0>         0.1315
     35 H11        -0.1615    0.9157    0.3482 H         1 <0>         0.1306
     36 H12         1.6320    0.8155    0.3475 H         1 <0>         0.1263
     37 H13         0.5116   -0.0726   -3.0775 H         1 <0>         0.1339
     38 H14        -0.3247    1.1057   -2.0103 H         1 <0>         0.1333
     39 H15         2.2465    1.4140   -1.1270 H         1 <0>         0.0939
     40 H16         1.0220    2.7466   -3.6068 H         1 <0>         0.0834
     41 H17         0.6678    3.1889   -1.9022 H         1 <0>         0.0885
     42 H18         2.4157    4.6701   -2.9719 H         1 <0>         0.0866
     43 H19         3.0196    3.7955   -1.5239 H         1 <0>         0.0783
     44 H20         4.8166    1.3216   -3.8541 H         1 <0>         0.1072
     45 H21         4.5827    1.6192   -2.0982 H         1 <0>         0.0705
     46 H22         3.1102   -0.2286   -2.7998 H         1 <0>         0.0823
     47 H23         2.4302    0.7763   -4.1242 H         1 <0>         0.0851
     48 H24         3.2784    5.5447   -3.9284 H         1 <0>         0.4278
     49 H25         5.3372    4.1212   -6.6433 H         1 <0>         0.1671
     50 H26         6.6393    5.4490   -8.2555 H         1 <0>         0.1366
     51 H27         5.7802    8.9940   -6.0418 H         1 <0>         0.1382
     52 H28         4.4677    7.6754   -4.4307 H         1 <0>         0.1330
     53 H29        -0.2458   -1.0924   -1.0251 H         1 <0>         0.4435
@<TRIPOS>BOND
     1    1    2 1
     2    1   26 1
     3    1   27 1
     4    1   28 1
     5    2    3 1
     6    2    8 1
     7    2    4 1
     8    4    5 1
     9    4   29 1
    10    4   30 1
    11    5    6 1
    12    5   31 1
    13    5   32 1
    14    6    7 1
    15    6   33 1
    16    6   34 1
    17    7    8 1
    18    7    9 1
    19    7   53 1
    20    8   35 1
    21    8   36 1
    22    9   10 1
    23    9   37 1
    24    9   38 1
    25   10   15 1
    26   10   11 1
    27   10   39 1
    28   11   12 1
    29   11   40 1
    30   11   41 1
    31   12   13 1
    32   12   42 1
    33   12   43 1
    34   13   14 1
    35   13   16 am
    36   14   15 1
    37   14   44 1
    38   14   45 1
    39   15   46 1
    40   15   47 1
    41   16   17 2
    42   16   18 am
    43   18   19 1
    44   18   48 1
    45   19   24 ar
    46   19   20 ar
    47   20   21 ar
    48   20   49 1
    49   21   22 ar
    50   21   50 1
    51   22   23 ar
    52   22   25 1
    53   23   24 ar
    54   23   51 1
    55   24   52 1
