@<TRIPOS>MOLECULE
ZINC64859856
   64    68     0     0     0
SMALL
USER_CHARGES

@<TRIPOS>ATOM
      1 C1          0.5065    1.4843   -1.1238 C.3       1 <0>        -0.1204
      2 C2          0.4576   -0.0139   -0.9687 C.ar      1 <0>        -0.0589
      3 C3          0.3466   -0.8193   -2.0878 C.ar      1 <0>        -0.1272
      4 C4          0.3015   -2.1920   -1.9515 C.ar      1 <0>        -0.0716
      5 C5          0.3684   -2.7662   -0.6839 C.ar      1 <0>        -0.0455
      6 C6          0.4806   -1.9504    0.4398 C.ar      1 <0>        -0.0581
      7 C7          0.5298   -0.5790    0.2917 C.ar      1 <0>        -0.1278
      8 C8          0.3198   -4.2419   -0.5311 C.2       1 <0>         0.3007
      9 N1          0.3703   -4.9083    0.6327 N.2       1 <0>        -0.5154
     10 C9          0.3041   -6.2020    0.4109 C.2       1 <0>         0.3861
     11 O1          0.2086   -6.3962   -0.9167 O.3       1 <0>        -0.1024
     12 N2          0.2149   -5.1069   -1.5107 N.2       1 <0>        -0.3387
     13 C10         0.3302   -7.2585    1.4401 C.2       1 <0>         0.0328
     14 C11         0.2675   -8.6014    1.2157 C.2       1 <0>         0.0370
     15 N3          0.3226   -9.2058    2.4353 N.pl3     1 <0>        -0.4488
     16 C12         0.4172   -8.2266    3.3714 C.2       1 <0>         0.2028
     17 N4          0.4264   -7.0693    2.7744 N.2       1 <0>        -0.4387
     18 C13         0.2862  -10.6479    2.6904 C.3       1 <0>         0.1477
     19 C14         1.6907  -11.1941    2.6881 C.ar      1 <0>        -0.1424
     20 C15         2.2536  -11.6452    1.5083 C.ar      1 <0>        -0.0741
     21 C16         3.5405  -12.1467    1.5030 C.ar      1 <0>        -0.1197
     22 C17         4.2693  -12.1974    2.6839 C.ar      1 <0>         0.1808
     23 C18         3.7012  -11.7433    3.8670 C.ar      1 <0>        -0.1462
     24 C19         2.4158  -11.2380    3.8647 C.ar      1 <0>        -0.0736
     25 N5          5.5731  -12.7054    2.6820 N.am      1 <0>        -0.6820
     26 C20         6.3663  -12.5219    1.6079 C.2       1 <0>         0.7043
     27 O2          5.9852  -11.8326    0.6814 O.2       1 <0>        -0.5468
     28 N6          7.5818  -13.1022    1.5607 N.am      1 <0>        -0.6657
     29 C21         8.4517  -12.8212    0.4984 C.ar      1 <0>         0.1781
     30 C22         8.2831  -11.6662   -0.2506 C.ar      1 <0>        -0.1362
     31 C23         9.1454  -11.3906   -1.3005 C.ar      1 <0>         0.1194
     32 C24        10.1756  -12.2691   -1.6021 C.ar      1 <0>        -0.1893
     33 C25        10.3457  -13.4209   -0.8570 C.ar      1 <0>        -0.1440
     34 C26         9.4905  -13.6984    0.1967 C.ar      1 <0>         0.0596
     35 O3          9.6617  -14.8298    0.9329 O.3       1 <0>        -0.3228
     36 C27        10.7477  -15.6835    0.5671 C.3       1 <0>         0.0300
     37 O4          8.9809  -10.2584   -2.0354 O.3       1 <0>        -0.3125
     38 C28         9.9055  -10.0375   -3.1023 C.3       1 <0>         0.0269
     39 H1          1.5422    1.8041   -1.2383 H         1 <0>         0.0758
     40 H2         -0.0638    1.7771   -2.0054 H         1 <0>         0.0700
     41 H3          0.0764    1.9553   -0.2399 H         1 <0>         0.0706
     42 H4          0.2948   -0.3731   -3.0700 H         1 <0>         0.1315
     43 H5          0.2140   -2.8199   -2.8258 H         1 <0>         0.1321
     44 H6          0.5329   -2.3904    1.4247 H         1 <0>         0.1406
     45 H7          0.6205    0.0543    1.1619 H         1 <0>         0.1323
     46 H8          0.1886   -9.0916    0.2565 H         1 <0>         0.1918
     47 H9          0.4789   -8.3825    4.4383 H         1 <0>         0.2176
     48 H10        -0.1744  -10.8338    3.6606 H         1 <0>         0.1116
     49 H11        -0.2963  -11.1400    1.9115 H         1 <0>         0.1076
     50 H12         1.6863  -11.6055    0.5902 H         1 <0>         0.1282
     51 H13         3.9793  -12.4995    0.5813 H         1 <0>         0.1403
     52 H14         4.2655  -11.7813    4.7871 H         1 <0>         0.1307
     53 H15         1.9749  -10.8809    4.7837 H         1 <0>         0.1306
     54 H16         5.9061  -13.1897    3.4537 H         1 <0>         0.4111
     55 H17         7.8545  -13.7144    2.2619 H         1 <0>         0.4159
     56 H18         7.4806  -10.9824   -0.0164 H         1 <0>         0.1696
     57 H19        10.8460  -12.0529   -2.4209 H         1 <0>         0.1329
     58 H20        11.1486  -14.1032   -1.0940 H         1 <0>         0.1365
     59 H21        10.6147  -16.0204   -0.4610 H         1 <0>         0.0557
     60 H22        11.6856  -15.1347    0.6512 H         1 <0>         0.0558
     61 H23        10.7710  -16.5468    1.2322 H         1 <0>         0.1009
     62 H24         9.6623   -9.1019   -3.6060 H         1 <0>         0.1014
     63 H25        10.9172   -9.9814   -2.7005 H         1 <0>         0.0554
     64 H26         9.8423  -10.8605   -3.8142 H         1 <0>         0.0556
@<TRIPOS>BOND
     1    1    2 1
     2    1   39 1
     3    1   40 1
     4    1   41 1
     5    2    7 ar
     6    2    3 ar
     7    3    4 ar
     8    3   42 1
     9    4    5 ar
    10    4   43 1
    11    5    6 ar
    12    5    8 1
    13    6    7 ar
    14    6   44 1
    15    7   45 1
    16    8   12 2
    17    8    9 1
    18    9   10 2
    19   10   11 1
    20   10   13 1
    21   11   12 1
    22   13   17 1
    23   13   14 2
    24   14   15 1
    25   14   46 1
    26   15   16 1
    27   15   18 1
    28   16   17 2
    29   16   47 1
    30   18   19 1
    31   18   48 1
    32   18   49 1
    33   19   24 ar
    34   19   20 ar
    35   20   21 ar
    36   20   50 1
    37   21   22 ar
    38   21   51 1
    39   22   23 ar
    40   22   25 1
    41   23   24 ar
    42   23   52 1
    43   24   53 1
    44   25   26 am
    45   25   54 1
    46   26   27 2
    47   26   28 am
    48   28   29 1
    49   28   55 1
    50   29   34 ar
    51   29   30 ar
    52   30   31 ar
    53   30   56 1
    54   31   32 ar
    55   31   37 1
    56   32   33 ar
    57   32   57 1
    58   33   34 ar
    59   33   58 1
    60   34   35 1
    61   35   36 1
    62   36   59 1
    63   36   60 1
    64   36   61 1
    65   37   38 1
    66   38   62 1
    67   38   63 1
    68   38   64 1
