@<TRIPOS>MOLECULE
ZINC57428700
   52    55     0     0     0
SMALL
USER_CHARGES

@<TRIPOS>ATOM
      1 C1          1.3095    1.2263   -0.1533 C.3       1 <0>        -0.1118
      2 C2          0.6718   -0.1370   -0.0782 C.ar      1 <0>        -0.0991
      3 C3          0.0898   -0.6891   -1.2045 C.ar      1 <0>        -0.0952
      4 C4         -0.4972   -1.9392   -1.1417 C.ar      1 <0>        -0.1834
      5 C5         -0.5036   -2.6426    0.0519 C.ar      1 <0>         0.0950
      6 C6          0.0830   -2.0873    1.1868 C.ar      1 <0>         0.1212
      7 C7          0.6750   -0.8348    1.1146 C.ar      1 <0>        -0.0946
      8 N1          0.0796   -2.7941    2.3967 N.am      1 <0>        -0.6521
      9 C8          0.1732   -2.1297    3.5655 C.2       1 <0>         0.5342
     10 O1          0.1582   -0.9169    3.5766 O.2       1 <0>        -0.5034
     11 C9          0.2967   -2.8936    4.8587 C.3       1 <0>        -0.1540
     12 S1          0.4025   -1.7260    6.2430 S.3       1 <0>         0.0949
     13 C10         0.5406   -2.7599    7.6630 C.2       1 <0>         0.3609
     14 N2          0.5483   -4.0546    7.4944 N.2       1 <0>        -0.5178
     15 C11         0.6523   -4.9201    8.5465 C.2       1 <0>         0.1751
     16 C12         0.6745   -6.3221    8.5221 C.2       1 <0>        -0.1583
     17 C13         0.7840   -7.0199    9.6728 C.2       1 <0>        -0.1247
     18 S2          0.8669   -5.7334   10.9076 S.3       1 <0>         0.1771
     19 C14         0.7507   -4.3356    9.8220 C.2       1 <0>        -0.3233
     20 C15         0.7410   -2.9541    9.9943 C.2       1 <0>         0.5868
     21 O2          0.8275   -2.4615   11.1070 O.2       1 <0>        -0.5029
     22 N3          0.6407   -2.1712    8.8934 N.am      1 <0>        -0.4678
     23 C16         0.6328   -0.7748    9.0144 C.ar      1 <0>         0.0885
     24 C17        -0.5048   -0.0540    8.6758 C.ar      1 <0>        -0.0734
     25 C18        -0.5108    1.3216    8.7961 C.ar      1 <0>        -0.1336
     26 C19         0.6170    1.9825    9.2541 C.ar      1 <0>         0.1190
     27 C20         1.7523    1.2656    9.5921 C.ar      1 <0>        -0.1060
     28 C21         1.7603   -0.1110    9.4782 C.ar      1 <0>        -0.0555
     29 C22         2.9780    1.9872   10.0902 C.3       1 <0>        -0.1163
     30 F1          0.6094    3.3284    9.3706 F         1 <0>        -0.1283
     31 O3         -1.0813   -3.8719    0.1155 O.3       1 <0>        -0.3219
     32 C23        -1.6636   -4.3781   -1.0873 C.3       1 <0>         0.0293
     33 H1          2.3593    1.1217   -0.4272 H         1 <0>         0.0702
     34 H2          0.7961    1.8268   -0.9042 H         1 <0>         0.0671
     35 H3          1.2344    1.7165    0.8174 H         1 <0>         0.0688
     36 H4          0.0935   -0.1421   -2.1357 H         1 <0>         0.1275
     37 H5         -0.9512   -2.3673   -2.0232 H         1 <0>         0.1335
     38 H6          1.1345   -0.4032    1.9916 H         1 <0>         0.1533
     39 H7          0.0099   -3.7616    2.3930 H         1 <0>         0.4187
     40 H8         -0.5770   -3.5324    4.9882 H         1 <0>         0.1334
     41 H9          1.1960   -3.5089    4.8328 H         1 <0>         0.1340
     42 H10         0.6035   -6.8453    7.5800 H         1 <0>         0.1507
     43 H11         0.8136   -8.0905    9.8117 H         1 <0>         0.2054
     44 H12        -1.3843   -0.5690    8.3184 H         1 <0>         0.1430
     45 H13        -1.3952    1.8825    8.5326 H         1 <0>         0.1504
     46 H14         2.6446   -0.6702    9.7462 H         1 <0>         0.1380
     47 H15         2.9318    2.0752   11.1756 H         1 <0>         0.0799
     48 H16         3.8692    1.4263    9.8087 H         1 <0>         0.0758
     49 H17         3.0195    2.9818    9.6463 H         1 <0>         0.0762
     50 H18        -2.0883   -5.3640   -0.8985 H         1 <0>         0.1017
     51 H19        -2.4499   -3.7019   -1.4229 H         1 <0>         0.0569
     52 H20        -0.8966   -4.4544   -1.8581 H         1 <0>         0.0569
@<TRIPOS>BOND
     1    1    2 1
     2    1   33 1
     3    1   34 1
     4    1   35 1
     5    2    7 ar
     6    2    3 ar
     7    3    4 ar
     8    3   36 1
     9    4    5 ar
    10    4   37 1
    11    5    6 ar
    12    5   31 1
    13    6    7 ar
    14    6    8 1
    15    7   38 1
    16    8    9 am
    17    8   39 1
    18    9   10 2
    19    9   11 1
    20   11   12 1
    21   11   40 1
    22   11   41 1
    23   12   13 1
    24   13   22 1
    25   13   14 2
    26   14   15 1
    27   15   19 2
    28   15   16 1
    29   16   17 2
    30   16   42 1
    31   17   18 1
    32   17   43 1
    33   18   19 1
    34   19   20 1
    35   20   21 2
    36   20   22 am
    37   22   23 1
    38   23   28 ar
    39   23   24 ar
    40   24   25 ar
    41   24   44 1
    42   25   26 ar
    43   25   45 1
    44   26   27 ar
    45   26   30 1
    46   27   28 ar
    47   27   29 1
    48   28   46 1
    49   29   47 1
    50   29   48 1
    51   29   49 1
    52   31   32 1
    53   32   50 1
    54   32   51 1
    55   32   52 1
