@<TRIPOS>MOLECULE
ZINC14566112
   53    55     0     0     0
SMALL
USER_CHARGES
3-[[2-(4-bromo-2-isopropyl-phenoxy)acetyl]amino]-N-(3-chloro-4-fluoro-phenyl)benzamide
@<TRIPOS>ATOM
      1 C1         -0.6581    2.4879    0.0621 C.3       1 <0>        -0.1441
      2 C2         -1.4009    2.8060    1.3614 C.3       1 <0>        -0.0549
      3 C3         -1.6311    4.3153    1.4609 C.3       1 <0>        -0.1438
      4 C4         -0.5778    2.3449    2.5364 C.ar      1 <0>        -0.0918
      5 C5          0.6870    2.8623    2.7401 C.ar      1 <0>        -0.0479
      6 C6          1.4430    2.4394    3.8185 C.ar      1 <0>        -0.1228
      7 C7          0.9345    1.4975    4.6953 C.ar      1 <0>        -0.0540
      8 C8         -0.3292    0.9773    4.4951 C.ar      1 <0>        -0.2024
      9 C9         -1.0916    1.4048    3.4175 C.ar      1 <0>         0.1434
     10 O1         -2.3379    0.8990    3.2223 O.3       1 <0>        -0.2815
     11 C10        -2.8023   -0.0653    4.1692 C.3       1 <0>         0.0416
     12 C11        -4.1925   -0.5092    3.7934 C.2       1 <0>         0.5141
     13 O2         -4.7325   -0.0454    2.8113 O.2       1 <0>        -0.4834
     14 N1         -4.8359   -1.4215    4.5485 N.am      1 <0>        -0.6710
     15 C12        -6.1613   -1.7626    4.2562 C.ar      1 <0>         0.1382
     16 C13        -7.0468   -2.0561    5.2866 C.ar      1 <0>        -0.1108
     17 C14        -8.3581   -2.3888    5.0034 C.ar      1 <0>        -0.1044
     18 C15        -8.7944   -2.4421    3.6951 C.ar      1 <0>        -0.0970
     19 C16        -7.9116   -2.1544    2.6528 C.ar      1 <0>        -0.1199
     20 C17        -6.5894   -1.8134    2.9390 C.ar      1 <0>        -0.0576
     21 C18        -8.3759   -2.2112    1.2505 C.2       1 <0>         0.5608
     22 O3         -7.6053   -1.9606    0.3444 O.2       1 <0>        -0.5015
     23 N2         -9.6537   -2.5409    0.9766 N.am      1 <0>        -0.6683
     24 C19       -10.0663   -2.6991   -0.3513 C.ar      1 <0>         0.1517
     25 C20       -11.3606   -2.3583   -0.7226 C.ar      1 <0>        -0.1116
     26 C21       -11.7647   -2.5100   -2.0344 C.ar      1 <0>        -0.1190
     27 C22       -10.8842   -3.0120   -2.9778 C.ar      1 <0>         0.0946
     28 C23        -9.5941   -3.3581   -2.6089 C.ar      1 <0>        -0.0532
     29 C24        -9.1842   -3.2023   -1.2980 C.ar      1 <0>        -0.0874
     30 Cl1        -8.4921   -3.9872   -3.7937 Cl        1 <0>        -0.0401
     31 F1        -11.2831   -3.1640   -4.2595 F         1 <0>        -0.1248
     32 Br1         3.1735    3.1498    4.0951 Br        1 <0>        -0.0478
     33 H1         -0.4942    1.4127   -0.0087 H         1 <0>         0.0560
     34 H2          0.3025    3.0030    0.0574 H         1 <0>         0.0557
     35 H3         -1.2535    2.8215   -0.7878 H         1 <0>         0.0618
     36 H4         -2.3615    2.2909    1.3662 H         1 <0>         0.0927
     37 H5         -2.2265    4.6489    0.6110 H         1 <0>         0.0617
     38 H6         -2.1602    4.5419    2.3865 H         1 <0>         0.0555
     39 H7         -0.6705    4.8304    1.4561 H         1 <0>         0.0558
     40 H8          1.0855    3.5979    2.0571 H         1 <0>         0.1406
     41 H9          1.5264    1.1685    5.5367 H         1 <0>         0.1368
     42 H10        -0.7255    0.2419    5.1795 H         1 <0>         0.1369
     43 H11        -2.1336   -0.9260    4.1690 H         1 <0>         0.1005
     44 H12        -2.8198    0.3810    5.1635 H         1 <0>         0.1008
     45 H13        -4.3802   -1.8417    5.2947 H         1 <0>         0.4158
     46 H14        -6.7102   -2.0200    6.3121 H         1 <0>         0.1352
     47 H15        -9.0426   -2.6121    5.8085 H         1 <0>         0.1387
     48 H16        -9.8186   -2.7069    3.4777 H         1 <0>         0.1295
     49 H17        -5.9019   -1.5893    2.1368 H         1 <0>         0.1556
     50 H18       -10.2874   -2.6685    1.6999 H         1 <0>         0.4148
     51 H19       -12.0493   -1.9706    0.0135 H         1 <0>         0.1449
     52 H20       -12.7698   -2.2408   -2.3239 H         1 <0>         0.1520
     53 H21        -8.1788   -3.4720   -1.0104 H         1 <0>         0.1554
@<TRIPOS>BOND
     1    1    2 1
     2    1   33 1
     3    1   34 1
     4    1   35 1
     5    2    3 1
     6    2    4 1
     7    2   36 1
     8    3   37 1
     9    3   38 1
    10    3   39 1
    11    4    9 ar
    12    4    5 ar
    13    5    6 ar
    14    5   40 1
    15    6    7 ar
    16    6   32 1
    17    7    8 ar
    18    7   41 1
    19    8    9 ar
    20    8   42 1
    21    9   10 1
    22   10   11 1
    23   11   12 1
    24   11   43 1
    25   11   44 1
    26   12   13 2
    27   12   14 am
    28   14   15 1
    29   14   45 1
    30   15   20 ar
    31   15   16 ar
    32   16   17 ar
    33   16   46 1
    34   17   18 ar
    35   17   47 1
    36   18   19 ar
    37   18   48 1
    38   19   20 ar
    39   19   21 1
    40   20   49 1
    41   21   22 2
    42   21   23 am
    43   23   24 1
    44   23   50 1
    45   24   29 ar
    46   24   25 ar
    47   25   26 ar
    48   25   51 1
    49   26   27 ar
    50   26   52 1
    51   27   28 ar
    52   27   31 1
    53   28   29 ar
    54   28   30 1
    55   29   53 1
