@<TRIPOS>MOLECULE
ZINC02359883
   52    56     0     0     0
SMALL
USER_CHARGES

@<TRIPOS>ATOM
      1 C1         -0.0167    1.3799    0.0096 C.ar      1 <0>        -0.1297
      2 C2          1.1680    2.0954    0.0022 C.ar      1 <0>        -0.1219
      3 C3          2.3774    1.4334   -0.0129 C.ar      1 <0>        -0.1104
      4 C4          2.4049    0.0350   -0.0206 C.ar      1 <0>        -0.0437
      5 C5          1.2033   -0.6808   -0.0130 C.ar      1 <0>        -0.1151
      6 C6          0.0021   -0.0041    0.0020 C.ar      1 <0>        -0.1201
      7 C7          3.6913   -0.6794   -0.0372 C.2       1 <0>        -0.0922
      8 C8          3.7137   -2.0290   -0.0446 C.2       1 <0>        -0.0962
      9 C9          4.9910   -2.7383   -0.0610 C.2       1 <0>         0.4409
     10 O1          6.1516   -2.0422   -0.0688 O.3       1 <0>        -0.6622
     11 N1          5.0129   -4.0548   -0.0683 N.2       1 <0>        -0.6447
     12 C10         6.1998   -4.7140   -0.0835 C.2       1 <0>         0.5039
     13 N2          7.3819   -4.1528   -0.0866 N.2       1 <0>        -0.2945
     14 N3          8.3465   -5.1620   -0.1029 N.pl3     1 <0>        -0.4463
     15 C11         9.8157   -5.1491   -0.1131 C.3       1 <0>         0.2822
     16 H1         10.1551   -4.6093    0.7709 H         1 <0>         0.0707
     17 C12        10.5022   -6.5023   -0.1307 C.2       1 <0>        -0.3138
     18 C13         9.7153   -7.5956   -0.1354 C.2       1 <0>         0.2142
     19 N4          8.3626   -7.4980   -0.1255 N.2       1 <0>        -0.6553
     20 C14         7.7006   -6.3636   -0.1097 C.2       1 <0>         0.5774
     21 N5          6.3565   -6.0876   -0.0924 N.pl3     1 <0>        -0.6188
     22 C15        10.3439   -8.9397   -0.1525 C.ar      1 <0>        -0.0165
     23 C16        11.7321   -9.0621   -0.1576 C.ar      1 <0>        -0.0957
     24 C17        12.3119  -10.3142   -0.1730 C.ar      1 <0>        -0.1151
     25 C18        11.5169  -11.4476   -0.1834 C.ar      1 <0>        -0.0378
     26 C19        10.1374  -11.3311   -0.1784 C.ar      1 <0>        -0.1180
     27 C20         9.5481  -10.0836   -0.1577 C.ar      1 <0>        -0.0711
     28 Cl1        12.2523  -13.0200   -0.2034 Cl        1 <0>        -0.0825
     29 C21        10.2678   -4.3806   -1.3280 C.ar      1 <0>        -0.0812
     30 C22         9.5998   -4.5305   -2.5289 C.ar      1 <0>        -0.0830
     31 C23        10.0145   -3.8256   -3.6432 C.ar      1 <0>        -0.1207
     32 C24        11.0971   -2.9703   -3.5567 C.ar      1 <0>        -0.1252
     33 C25        11.7646   -2.8197   -2.3556 C.ar      1 <0>        -0.1232
     34 C26        11.3472   -3.5214   -1.2401 C.ar      1 <0>        -0.1087
     35 H2         -0.9608    1.9042    0.0260 H         1 <0>         0.1173
     36 H3          1.1452    3.1751    0.0078 H         1 <0>         0.1196
     37 H4          3.3011    1.9931   -0.0191 H         1 <0>         0.1244
     38 H5          1.2163   -1.7607   -0.0192 H         1 <0>         0.1283
     39 H6         -0.9266   -0.5553    0.0082 H         1 <0>         0.1204
     40 H7          4.6174   -0.1239   -0.0434 H         1 <0>         0.1320
     41 H8          2.7875   -2.5845   -0.0384 H         1 <0>         0.1197
     42 H9         11.5789   -6.5854   -0.1394 H         1 <0>         0.1404
     43 H10         5.6408   -6.7423   -0.0893 H         1 <0>         0.4312
     44 H11        12.3530   -8.1785   -0.1499 H         1 <0>         0.1361
     45 H12        13.3876  -10.4101   -0.1773 H         1 <0>         0.1317
     46 H13         9.5214  -12.2182   -0.1870 H         1 <0>         0.1309
     47 H14         8.4719   -9.9938   -0.1496 H         1 <0>         0.1451
     48 H15         8.7540   -5.1987   -2.5965 H         1 <0>         0.1070
     49 H16         9.4930   -3.9432   -4.5816 H         1 <0>         0.1157
     50 H17        11.4216   -2.4201   -4.4275 H         1 <0>         0.1164
     51 H18        12.6106   -2.1518   -2.2880 H         1 <0>         0.1184
     52 H19        11.8664   -3.4010   -0.3008 H         1 <0>         0.1197
@<TRIPOS>BOND
     1    1    6 ar
     2    1    2 ar
     3    1   35 1
     4    2    3 ar
     5    2   36 1
     6    3    4 ar
     7    3   37 1
     8    4    5 ar
     9    4    7 1
    10    5    6 ar
    11    5   38 1
    12    6   39 1
    13    7    8 2
    14    7   40 1
    15    8    9 1
    16    8   41 1
    17    9   10 1
    18    9   11 2
    19   11   12 1
    20   12   21 1
    21   12   13 2
    22   13   14 1
    23   14   20 1
    24   14   15 1
    25   15   16 1
    26   15   17 1
    27   15   29 1
    28   17   18 2
    29   17   42 1
    30   18   19 1
    31   18   22 1
    32   19   20 2
    33   20   21 1
    34   21   43 1
    35   22   27 ar
    36   22   23 ar
    37   23   24 ar
    38   23   44 1
    39   24   25 ar
    40   24   45 1
    41   25   26 ar
    42   25   28 1
    43   26   27 ar
    44   26   46 1
    45   27   47 1
    46   29   34 ar
    47   29   30 ar
    48   30   31 ar
    49   30   48 1
    50   31   32 ar
    51   31   49 1
    52   32   33 ar
    53   32   50 1
    54   33   34 ar
    55   33   51 1
    56   34   52 1
