@<TRIPOS>MOLECULE
ZINC03222228
   63    67     0     0     0
SMALL
USER_CHARGES
2-amino-1-[(4-chlorophenyl)methyl]-N-[2-(3,4-dimethoxyphenyl)ethyl]pyrrolo[5,4-b]quinoxaline-3-carboxamide
@<TRIPOS>ATOM
      1 C1         -5.7698   -9.5267    2.6167 C.3       1 <0>         0.0256
      2 O1         -4.3656   -9.7914    2.6029 O.3       1 <0>        -0.3070
      3 C2         -3.5344   -8.7150    2.6010 C.ar      1 <0>         0.0991
      4 C3         -4.0591   -7.4325    2.6118 C.ar      1 <0>        -0.1698
      5 C4         -3.2128   -6.3395    2.6151 C.ar      1 <0>        -0.1077
      6 C5         -1.8425   -6.5223    2.5962 C.ar      1 <0>        -0.0807
      7 C6         -1.3125   -7.7990    2.5854 C.ar      1 <0>        -0.1658
      8 C7         -2.1552   -8.8990    2.5877 C.ar      1 <0>         0.1009
      9 O2         -1.6354  -10.1557    2.5766 O.3       1 <0>        -0.3062
     10 C8         -0.2110  -10.2685    2.5628 C.3       1 <0>         0.0260
     11 C9         -0.9245   -5.3272    2.5937 C.3       1 <0>        -0.0867
     12 C10        -0.6268   -4.9158    1.1504 C.3       1 <0>         0.1237
     13 N1          0.2656   -3.7540    1.1479 N.am      1 <0>        -0.7237
     14 C11         0.6656   -3.2140   -0.0203 C.2       1 <0>         0.6104
     15 O3          0.2853   -3.6918   -1.0738 O.2       1 <0>        -0.5291
     16 C12         1.5557   -2.0551   -0.0228 C.2       1 <0>        -0.3174
     17 C13         1.1573   -0.6383   -0.0120 C.ar      1 <0>         0.1741
     18 C14         2.4129    0.1177   -0.0194 C.ar      1 <0>         0.2916
     19 N2          2.3760    1.4330   -0.0119 N.ar      1 <0>        -0.4407
     20 C15         1.1967    2.0673    0.0017 C.ar      1 <0>         0.0970
     21 C16         1.1485    3.4737    0.0092 C.ar      1 <0>        -0.0852
     22 C17        -0.0538    4.1100    0.0236 C.ar      1 <0>        -0.1021
     23 C18        -1.2465    3.3888    0.0307 C.ar      1 <0>        -0.1032
     24 C19        -1.2405    2.0285    0.0189 C.ar      1 <0>        -0.0824
     25 C20        -0.0161    1.3343    0.0094 C.ar      1 <0>         0.0891
     26 N3          0.0021   -0.0041    0.0020 N.ar      1 <0>        -0.4194
     27 N4          3.4387   -0.8051   -0.0333 N.pl3     1 <0>        -0.4825
     28 C21         2.9462   -2.0736   -0.0354 C.2       1 <0>         0.4783
     29 N5          3.7128   -3.2097   -0.0485 N.pl3     1 <0>        -0.8295
     30 C22         4.8637   -0.4654   -0.0447 C.3       1 <0>         0.1495
     31 C23         5.3393   -0.3420   -1.4694 C.ar      1 <0>        -0.1219
     32 C24         5.8401   -1.4490   -2.1289 C.ar      1 <0>        -0.0879
     33 C25         6.2712   -1.3377   -3.4374 C.ar      1 <0>        -0.1105
     34 C26         6.2118   -0.1157   -4.0835 C.ar      1 <0>        -0.0218
     35 C27         5.7158    0.9930   -3.4210 C.ar      1 <0>        -0.1100
     36 C28         5.2797    0.8792   -2.1144 C.ar      1 <0>        -0.0751
     37 Cl1         6.7591    0.0262   -5.7248 Cl        1 <0>        -0.0612
     38 H1         -6.0237   -8.9590    3.5120 H         1 <0>         0.0552
     39 H2         -6.0396   -8.9499    1.7321 H         1 <0>         0.0557
     40 H3         -6.3172  -10.4693    2.6168 H         1 <0>         0.1013
     41 H4         -5.1292   -7.2870    2.6221 H         1 <0>         0.1366
     42 H5         -3.6229   -5.3405    2.6280 H         1 <0>         0.1287
     43 H6         -0.2417   -7.9392    2.5755 H         1 <0>         0.1352
     44 H7          0.2001   -9.7894    3.4514 H         1 <0>         0.0545
     45 H8          0.0700  -11.3216    2.5550 H         1 <0>         0.1010
     46 H9          0.1835   -9.7805    1.6716 H         1 <0>         0.0550
     47 H10         0.0072   -5.5836    3.0980 H         1 <0>         0.0785
     48 H11        -1.4044   -4.4993    3.1158 H         1 <0>         0.0821
     49 H12        -1.5585   -4.6594    0.6461 H         1 <0>         0.0718
     50 H13        -0.1470   -5.7436    0.6283 H         1 <0>         0.0695
     51 H14         0.5686   -3.3734    1.9871 H         1 <0>         0.4009
     52 H15         2.0640    4.0466    0.0032 H         1 <0>         0.1365
     53 H16        -0.0845    5.1895    0.0293 H         1 <0>         0.1342
     54 H17        -2.1884    3.9171    0.0418 H         1 <0>         0.1344
     55 H18        -2.1725    1.4828    0.0203 H         1 <0>         0.1380
     56 H19         3.2877   -4.0816   -0.0491 H         1 <0>         0.4276
     57 H20         4.6803   -3.1418   -0.0571 H         1 <0>         0.4062
     58 H21         5.0156    0.4821    0.4723 H         1 <0>         0.1151
     59 H22         5.4282   -1.2493    0.4601 H         1 <0>         0.1014
     60 H23         5.8905   -2.4018   -1.6231 H         1 <0>         0.1278
     61 H24         6.6583   -2.2035   -3.9540 H         1 <0>         0.1381
     62 H25         5.6689    1.9471   -3.9250 H         1 <0>         0.1381
     63 H26         4.8921    1.7446   -1.5973 H         1 <0>         0.1390
@<TRIPOS>BOND
     1    1    2 1
     2    1   38 1
     3    1   39 1
     4    1   40 1
     5    2    3 1
     6    3    8 ar
     7    3    4 ar
     8    4    5 ar
     9    4   41 1
    10    5    6 ar
    11    5   42 1
    12    6    7 ar
    13    6   11 1
    14    7    8 ar
    15    7   43 1
    16    8    9 1
    17    9   10 1
    18   10   44 1
    19   10   45 1
    20   10   46 1
    21   11   12 1
    22   11   47 1
    23   11   48 1
    24   12   13 1
    25   12   49 1
    26   12   50 1
    27   13   14 am
    28   13   51 1
    29   14   15 2
    30   14   16 1
    31   16   28 2
    32   16   17 1
    33   17   26 ar
    34   17   18 ar
    35   18   19 ar
    36   18   27 1
    37   19   20 ar
    38   20   25 ar
    39   20   21 ar
    40   21   22 ar
    41   21   52 1
    42   22   23 ar
    43   22   53 1
    44   23   24 ar
    45   23   54 1
    46   24   25 ar
    47   24   55 1
    48   25   26 ar
    49   27   28 1
    50   27   30 1
    51   28   29 1
    52   29   56 1
    53   29   57 1
    54   30   31 1
    55   30   58 1
    56   30   59 1
    57   31   36 ar
    58   31   32 ar
    59   32   33 ar
    60   32   60 1
    61   33   34 ar
    62   33   61 1
    63   34   35 ar
    64   34   37 1
    65   35   36 ar
    66   35   62 1
    67   36   63 1
