@<TRIPOS>MOLECULE
ZINC10042458
   58    59     0     0     0
SMALL
USER_CHARGES
2-[4-[[2-(3,4-dichlorobenzoyl)amino-3-methyl-butanoyl]aminoiminomethyl]-2-ethoxy-phenoxy]acetic acid
@<TRIPOS>ATOM
      1 C1         -4.7951    0.0750    0.0492 C.3       1 <0>        -0.1527
      2 C2         -3.5706   -0.8423    0.0321 C.3       1 <0>         0.0534
      3 O1         -2.3817   -0.0496    0.0250 O.3       1 <0>        -0.2953
      4 C3         -1.1959   -0.7153    0.0096 C.ar      1 <0>         0.0895
      5 C4         -1.1793   -2.0974    0.0021 C.ar      1 <0>        -0.1423
      6 C5          0.0408   -2.7781   -0.0132 C.ar      1 <0>        -0.0872
      7 C6          1.2383   -2.0582   -0.0208 C.ar      1 <0>        -0.0597
      8 C7          1.2137   -0.6795   -0.0189 C.ar      1 <0>        -0.1931
      9 C8          0.0021   -0.0041    0.0020 C.ar      1 <0>         0.1412
     10 O2         -0.0164    1.3551    0.0095 O.3       1 <0>        -0.2706
     11 C9          1.2479    2.0211    0.0010 C.3       1 <0>         0.0138
     12 C10         1.0302    3.5123    0.0111 C.2       1 <0>         0.4695
     13 O3         -0.0924    3.9589    0.0242 O.co2     1 <0>        -0.6108
     14 C11         0.0647   -4.2521   -0.0219 C.2       1 <0>         0.1389
     15 N1          1.1989   -4.8827   -0.0361 N.2       1 <0>        -0.2419
     16 N2          1.2216   -6.2835   -0.0443 N.am      1 <0>        -0.5799
     17 C12         2.3995   -6.9384   -0.0591 C.2       1 <0>         0.5320
     18 O4          3.4401   -6.3149   -0.0652 O.2       1 <0>        -0.4980
     19 C13         2.4238   -8.4452   -0.0679 C.3       1 <0>         0.1388
     20 H1          1.9076   -8.8117   -0.9552 H         1 <0>         0.1220
     21 C14         1.7226   -8.9739    1.1850 C.3       1 <0>        -0.1026
     22 C15         1.7474  -10.5037    1.1760 C.3       1 <0>        -0.1394
     23 C16         2.4472   -8.4594    2.4304 C.3       1 <0>        -0.1529
     24 N3          3.8127   -8.9110   -0.0835 N.am      1 <0>        -0.7027
     25 C17         4.1105  -10.1254   -0.5866 C.2       1 <0>         0.5677
     26 O5          3.2267  -10.8342   -1.0273 O.2       1 <0>        -0.5216
     27 C18         5.5116  -10.5954   -0.6024 C.ar      1 <0>        -0.1187
     28 C19         6.5295   -9.7810   -0.1021 C.ar      1 <0>        -0.0672
     29 C20         7.8344  -10.2265   -0.1144 C.ar      1 <0>        -0.1030
     30 C21         8.1385  -11.4746   -0.6322 C.ar      1 <0>        -0.0076
     31 C22         7.1335  -12.2857   -1.1351 C.ar      1 <0>        -0.0413
     32 C23         5.8229  -11.8526   -1.1227 C.ar      1 <0>        -0.0380
     33 Cl1         7.5234  -13.8491   -1.7812 Cl        1 <0>        -0.0379
     34 Cl2         9.7847  -12.0254   -0.6508 Cl        1 <0>        -0.0378
     35 H2         -4.7691    0.6990    0.9426 H         1 <0>         0.0681
     36 H3         -4.7864    0.7091   -0.8373 H         1 <0>         0.0681
     37 H4         -5.7019   -0.5297    0.0546 H         1 <0>         0.0737
     38 H5         -3.5966   -1.4663   -0.8613 H         1 <0>         0.0578
     39 H6         -3.5792   -1.4764    0.9186 H         1 <0>         0.0578
     40 H7         -2.1073   -2.6499    0.0083 H         1 <0>         0.1356
     41 H8          2.1830   -2.5815   -0.0330 H         1 <0>         0.1364
     42 H9          2.1399   -0.1242   -0.0292 H         1 <0>         0.1420
     43 H10         1.8173    1.7311    0.8840 H         1 <0>         0.0691
     44 H11         1.8003    1.7407   -0.8958 H         1 <0>         0.0691
     45 H12        -0.8618   -4.8072   -0.0164 H         1 <0>         0.1175
     46 H13         0.3895   -6.7821   -0.0394 H         1 <0>         0.3847
     47 H14         0.6893   -8.6273    1.1966 H         1 <0>         0.0842
     48 H15         1.2478  -10.8804    2.0686 H         1 <0>         0.0549
     49 H16         1.2312  -10.8702    0.2887 H         1 <0>         0.0676
     50 H17         2.7807  -10.8503    1.1644 H         1 <0>         0.0565
     51 H18         2.4296   -7.3696    2.4368 H         1 <0>         0.0566
     52 H19         1.9477   -8.8361    3.3230 H         1 <0>         0.0638
     53 H20         3.4806   -8.8060    2.4188 H         1 <0>         0.0596
     54 H21         4.5179   -8.3455    0.2681 H         1 <0>         0.4115
     55 H22         6.2947   -8.8056    0.2976 H         1 <0>         0.1456
     56 H23         8.6217   -9.5989    0.2764 H         1 <0>         0.1528
     57 H24         5.0402  -12.4849   -1.5151 H         1 <0>         0.1579
     58 O6          2.0835    4.3444    0.0055 O.co2     1 <0>        -0.7552
@<TRIPOS>BOND
     1    1    2 1
     2    1   35 1
     3    1   36 1
     4    1   37 1
     5    2    3 1
     6    2   38 1
     7    2   39 1
     8    3    4 1
     9    4    9 ar
    10    4    5 ar
    11    5    6 ar
    12    5   40 1
    13    6    7 ar
    14    6   14 1
    15    7    8 ar
    16    7   41 1
    17    8    9 ar
    18    8   42 1
    19    9   10 1
    20   10   11 1
    21   11   12 1
    22   11   43 1
    23   11   44 1
    24   12   13 2
    25   12   58 1
    26   14   15 2
    27   14   45 1
    28   15   16 1
    29   16   17 am
    30   16   46 1
    31   17   18 2
    32   17   19 1
    33   19   20 1
    34   19   21 1
    35   19   24 1
    36   21   22 1
    37   21   23 1
    38   21   47 1
    39   22   48 1
    40   22   49 1
    41   22   50 1
    42   23   51 1
    43   23   52 1
    44   23   53 1
    45   24   25 am
    46   24   54 1
    47   25   26 2
    48   25   27 1
    49   27   32 ar
    50   27   28 ar
    51   28   29 ar
    52   28   55 1
    53   29   30 ar
    54   29   56 1
    55   30   31 ar
    56   30   34 1
    57   31   32 ar
    58   31   33 1
    59   32   57 1
