@<TRIPOS>MOLECULE
ZINC40589218
   48    51     0     0     0
SMALL
USER_CHARGES

@<TRIPOS>ATOM
      1 C1         -0.2911    2.0708    0.5695 C.3       1 <0>        -0.1723
      2 C2         -0.0564    0.5666    0.4177 C.3       1 <0>         0.1223
      3 N1         -1.3463   -0.1264    0.3686 N.pl3     1 <0>        -0.5280
      4 C3         -1.9254   -0.4353   -0.8616 C.ar      1 <0>         0.0539
      5 C4         -1.6554   -1.6405   -1.4746 C.ar      1 <0>        -0.0595
      6 C5         -2.2281   -1.9584   -2.7021 C.ar      1 <0>        -0.1142
      7 C6         -3.0692   -1.0916   -3.3311 C.ar      1 <0>        -0.0653
      8 C7         -3.3708    0.1470   -2.7401 C.ar      1 <0>        -0.0447
      9 C8         -2.7978    0.4804   -1.4880 C.ar      1 <0>        -0.0134
     10 C9         -3.1037    1.7161   -0.8969 C.ar      1 <0>        -0.1127
     11 C10        -3.9493    2.5752   -1.5300 C.ar      1 <0>        -0.1006
     12 C11        -4.5176    2.2463   -2.7591 C.ar      1 <0>        -0.1171
     13 C12        -4.2353    1.0615   -3.3667 C.ar      1 <0>        -0.0932
     14 C13        -1.9916   -0.4751    1.5461 C.ar      1 <0>         0.5163
     15 C14        -3.1764   -1.2047    1.5127 C.ar      1 <0>        -0.2610
     16 C15        -3.7843   -1.5299    2.7213 C.ar      1 <0>         0.5087
     17 N2         -3.2147   -1.1341    3.8585 N.ar      1 <0>        -0.5815
     18 C16        -2.0923   -0.4447    3.8482 C.ar      1 <0>         0.4056
     19 N3         -1.4835   -0.1216    2.7253 N.ar      1 <0>        -0.5814
     20 N4         -4.9667   -2.2553    2.7417 N.pl3     1 <0>        -0.6444
     21 C17        -5.6273   -2.4815    3.9529 C.ar      1 <0>         0.1679
     22 C18        -6.3133   -3.6715    4.1598 C.ar      1 <0>        -0.1378
     23 C19        -6.9648   -3.8920    5.3573 C.ar      1 <0>        -0.0627
     24 C20        -6.9347   -2.9293    6.3503 C.ar      1 <0>        -0.1121
     25 C21        -6.2527   -1.7430    6.1471 C.ar      1 <0>        -0.0639
     26 C22        -5.5941   -1.5192    4.9541 C.ar      1 <0>        -0.1040
     27 I1         -7.9246   -3.2683    8.1653 I         1 <0>        -0.0382
     28 N5         -3.7744   -1.6234    0.2249 N.pl3     1 <0>         0.0452
     29 O1         -3.4926   -2.6983   -0.2514 O.2       1 <0>        -0.1501
     30 O2         -4.5445   -0.8903   -0.3507 O.3       1 <0>        -0.1182
     31 H1          0.6655    2.5761    0.7028 H         1 <0>         0.0738
     32 H2         -0.7829    2.4539   -0.3246 H         1 <0>         0.0610
     33 H3         -0.9230    2.2541    1.4386 H         1 <0>         0.0639
     34 H4          0.4938    0.3758   -0.5037 H         1 <0>         0.0847
     35 H5          0.5202    0.2012    1.2674 H         1 <0>         0.0932
     36 H6         -0.9915   -2.3456   -0.9966 H         1 <0>         0.1272
     37 H7         -2.0016   -2.9080   -3.1639 H         1 <0>         0.1333
     38 H8         -3.5040   -1.3558   -4.2838 H         1 <0>         0.1339
     39 H9         -2.6708    1.9840    0.0555 H         1 <0>         0.1205
     40 H10        -4.1832    3.5253   -1.0728 H         1 <0>         0.1213
     41 H11        -5.1856    2.9452   -3.2405 H         1 <0>         0.1243
     42 H12        -4.6827    0.8201   -4.3196 H         1 <0>         0.1301
     43 H13        -1.6564   -0.1386    4.7878 H         1 <0>         0.2175
     44 H14        -5.3352   -2.6055    1.9155 H         1 <0>         0.4222
     45 H15        -6.3374   -4.4233    3.3849 H         1 <0>         0.1345
     46 H16        -7.4987   -4.8169    5.5187 H         1 <0>         0.1359
     47 H17        -6.2316   -0.9930    6.9239 H         1 <0>         0.1352
     48 H18        -5.0575   -0.5950    4.7979 H         1 <0>         0.1441
@<TRIPOS>BOND
     1    1    2 1
     2    1   31 1
     3    1   32 1
     4    1   33 1
     5    2    3 1
     6    2   34 1
     7    2   35 1
     8    3    4 1
     9    3   14 1
    10    4    9 ar
    11    4    5 ar
    12    5    6 ar
    13    5   36 1
    14    6    7 ar
    15    6   37 1
    16    7    8 ar
    17    7   38 1
    18    8   13 ar
    19    8    9 ar
    20    9   10 ar
    21   10   11 ar
    22   10   39 1
    23   11   12 ar
    24   11   40 1
    25   12   13 ar
    26   12   41 1
    27   13   42 1
    28   14   19 ar
    29   14   15 ar
    30   15   16 ar
    31   15   28 1
    32   16   17 ar
    33   16   20 1
    34   17   18 ar
    35   18   19 ar
    36   18   43 1
    37   20   21 1
    38   20   44 1
    39   21   26 ar
    40   21   22 ar
    41   22   23 ar
    42   22   45 1
    43   23   24 ar
    44   23   46 1
    45   24   25 ar
    46   24   27 1
    47   25   26 ar
    48   25   47 1
    49   26   48 1
    50   28   29 2
    51   28   30 1
