@<TRIPOS>MOLECULE
ZINC33960425
   63    67     0     0     0
SMALL
USER_CHARGES

@<TRIPOS>ATOM
      1 C1          0.0119    1.5263   -0.0078 C.3       1 <0>        -0.1278
      2 C2          0.0273   -0.0037   -0.0130 C.3       1 <0>        -0.0022
      3 C3          0.7772   -0.6720   -1.2055 C.3       1 <0>        -0.1112
      4 C4          1.0875   -2.1054   -0.7161 C.3       1 <0>        -0.1124
      5 C5          0.4862   -2.1648    0.7219 C.3       1 <0>        -0.0959
      6 C6          0.7415   -0.6921    1.2029 C.3       1 <0>        -0.0260
      7 C7          0.0399   -0.3900    2.5286 C.3       1 <0>        -0.1458
      8 C8          2.2330   -0.3558    1.2597 C.3       1 <0>        -0.1416
      9 C9         -1.0564   -2.1189    0.4969 C.3       1 <0>        -0.1082
     10 C10        -1.3468   -0.6868    0.0347 C.2       1 <0>         0.1606
     11 N1         -2.4796   -0.1731   -0.2656 N.2       1 <0>        -0.2783
     12 O1         -3.6587   -0.9505   -0.1644 O.3       1 <0>        -0.2248
     13 C11        -4.7812   -0.2908   -0.5095 C.2       1 <0>         0.5195
     14 O2         -4.7187    0.8685   -0.8674 O.2       1 <0>        -0.4537
     15 C12        -6.0876   -0.9766   -0.4527 C.ar      1 <0>        -0.1171
     16 C13        -6.1634   -2.3078   -0.0361 C.ar      1 <0>        -0.0060
     17 C14        -7.3860   -2.9426    0.0147 C.ar      1 <0>        -0.1193
     18 C15        -8.5381   -2.2632   -0.3468 C.ar      1 <0>         0.0429
     19 C16        -8.4695   -0.9433   -0.7607 C.ar      1 <0>        -0.0553
     20 C17        -7.2532   -0.2954   -0.8099 C.ar      1 <0>         0.0202
     21 N2         -9.7052   -0.2247   -1.1452 N.pl3     1 <0>         0.0304
     22 O3         -9.6468    0.9275   -1.5067 O.2       1 <0>        -0.1471
     23 O4        -10.7728   -0.7900   -1.0977 O.3       1 <0>        -0.1258
     24 Cl1       -10.0739   -3.0699   -0.2812 Cl        1 <0>         0.0131
     25 C18         1.0089   -3.2613    1.6138 C.2       1 <0>         0.5503
     26 O5          1.5776   -2.9824    2.6481 O.2       1 <0>        -0.4954
     27 N3          0.8445   -4.5519    1.2620 N.am      1 <0>        -0.6627
     28 C19         1.4277   -5.5637    2.0271 C.ar      1 <0>         0.1510
     29 C20         2.5432   -5.3012    2.7927 C.ar      1 <0>        -0.1301
     30 C21         3.1322   -6.3025    3.5589 C.ar      1 <0>        -0.0922
     31 C22         2.6248   -7.5660    3.5745 C.ar      1 <0>        -0.1241
     32 C23         1.4882   -7.8750    2.8082 C.ar      1 <0>        -0.0346
     33 C24         0.8769   -6.8628    2.0280 C.ar      1 <0>        -0.0649
     34 C25        -0.2611   -7.1720    1.2665 C.ar      1 <0>        -0.1124
     35 C26        -0.7652   -8.4366    1.2910 C.ar      1 <0>        -0.1123
     36 C27        -0.1680   -9.4316    2.0625 C.ar      1 <0>        -0.1152
     37 C28         0.9428   -9.1707    2.8044 C.ar      1 <0>        -0.1021
     38 H1          1.0359    1.8999   -0.0091 H         1 <0>         0.0734
     39 H2         -0.5077    1.8874   -0.8953 H         1 <0>         0.0714
     40 H3         -0.5033    1.8814    0.8847 H         1 <0>         0.0673
     41 H4          0.1381   -0.7015   -2.0880 H         1 <0>         0.0770
     42 H5          1.7012   -0.1358   -1.4220 H         1 <0>         0.0921
     43 H6          0.6054   -2.8403   -1.3608 H         1 <0>         0.0771
     44 H7          2.1641   -2.2725   -0.6857 H         1 <0>         0.0833
     45 H8         -0.9943   -0.7308    2.4782 H         1 <0>         0.0502
     46 H9          0.5541   -0.9081    3.3381 H         1 <0>         0.0775
     47 H10         0.0600    0.6839    2.7139 H         1 <0>         0.0655
     48 H11         2.3585    0.7198    1.3840 H         1 <0>         0.0653
     49 H12         2.6907   -0.8747    2.1019 H         1 <0>         0.0747
     50 H13         2.7125   -0.6729    0.3335 H         1 <0>         0.0627
     51 H14        -1.3499   -2.8399   -0.2661 H         1 <0>         0.0979
     52 H15        -1.5819   -2.3186    1.4307 H         1 <0>         0.0963
     53 H16        -5.2659   -2.8387    0.2453 H         1 <0>         0.1646
     54 H17        -7.4459   -3.9718    0.3367 H         1 <0>         0.1692
     55 H18        -7.2015    0.7354   -1.1282 H         1 <0>         0.1788
     56 H19         0.3210   -4.7778    0.4773 H         1 <0>         0.4098
     57 H20         2.9653   -4.3071    2.7978 H         1 <0>         0.1474
     58 H21         4.0063   -6.0739    4.1506 H         1 <0>         0.1279
     59 H22         3.0957   -8.3302    4.1751 H         1 <0>         0.1287
     60 H23        -0.7346   -6.4106    0.6645 H         1 <0>         0.1185
     61 H24        -1.6408   -8.6718    0.7042 H         1 <0>         0.1240
     62 H25        -0.5879  -10.4266    2.0651 H         1 <0>         0.1251
     63 H26         1.3955   -9.9519    3.3971 H         1 <0>         0.1302
@<TRIPOS>BOND
     1    1    2 1
     2    1   38 1
     3    1   39 1
     4    1   40 1
     5    2    6 1
     6    2   10 1
     7    2    3 1
     8    3    4 1
     9    3   41 1
    10    3   42 1
    11    4    5 1
    12    4   43 1
    13    4   44 1
    14    5    6 1
    15    5    9 1
    16    5   25 1
    17    6    7 1
    18    6    8 1
    19    7   45 1
    20    7   46 1
    21    7   47 1
    22    8   48 1
    23    8   49 1
    24    8   50 1
    25    9   10 1
    26    9   51 1
    27    9   52 1
    28   10   11 2
    29   11   12 1
    30   12   13 1
    31   13   14 2
    32   13   15 1
    33   15   20 ar
    34   15   16 ar
    35   16   17 ar
    36   16   53 1
    37   17   18 ar
    38   17   54 1
    39   18   19 ar
    40   18   24 1
    41   19   20 ar
    42   19   21 1
    43   20   55 1
    44   21   22 2
    45   21   23 1
    46   25   26 2
    47   25   27 am
    48   27   28 1
    49   27   56 1
    50   28   33 ar
    51   28   29 ar
    52   29   30 ar
    53   29   57 1
    54   30   31 ar
    55   30   58 1
    56   31   32 ar
    57   31   59 1
    58   32   37 ar
    59   32   33 ar
    60   33   34 ar
    61   34   35 ar
    62   34   60 1
    63   35   36 ar
    64   35   61 1
    65   36   37 ar
    66   36   62 1
    67   37   63 1
