@<TRIPOS>MOLECULE
ZINC04135158
   40    42     0     0     0
SMALL
USER_CHARGES
2-[4-(2,4-dichlorophenyl)thiazol-2-yl]-2-(4-ethylphenyl)aminoimino-acetonitrile
@<TRIPOS>ATOM
      1 C1          7.6285    4.5854   -1.4904 C.3       1 <0>        -0.1482
      2 C2          7.2044    4.3172   -0.0450 C.3       1 <0>        -0.0836
      3 C3          5.9097    3.5460   -0.0363 C.ar      1 <0>        -0.1078
      4 C4          5.9304    2.1631   -0.0434 C.ar      1 <0>        -0.0796
      5 C5          4.7463    1.4531   -0.0355 C.ar      1 <0>        -0.1593
      6 C6          3.5322    2.1299   -0.0202 C.ar      1 <0>         0.1827
      7 C7          3.5153    3.5198   -0.0184 C.ar      1 <0>        -0.1420
      8 C8          4.7037    4.2229   -0.0207 C.ar      1 <0>        -0.0829
      9 N1          2.3338    1.4161   -0.0126 N.pl3     1 <0>        -0.5478
     10 N2          1.1112    2.1000    0.0027 N.2       1 <0>        -0.1345
     11 C9         -0.0173    1.4278    0.0099 C.2       1 <0>         0.2270
     12 C10         0.0021   -0.0041    0.0020 C.1       1 <0>         0.2204
     13 N3          0.0175   -1.1399   -0.0042 N.1       1 <0>        -0.3513
     14 C11        -1.3048    2.1480    0.0199 C.2       1 <0>         0.1486
     15 N4         -2.5375    1.6619    0.0177 N.2       1 <0>        -0.4490
     16 C12        -3.5885    2.4605    0.0328 C.2       1 <0>         0.0924
     17 C13        -3.4022    3.8182    0.0388 C.2       1 <0>        -0.1796
     18 S1         -1.6163    3.9081    0.0304 S.3       1 <0>         0.1138
     19 C14        -4.9592    1.8933    0.0373 C.ar      1 <0>        -0.0155
     20 C15        -6.0663    2.7398    0.0533 C.ar      1 <0>        -0.0802
     21 C16        -7.3393    2.2074    0.0511 C.ar      1 <0>        -0.1058
     22 C17        -7.5186    0.8344    0.0455 C.ar      1 <0>        -0.0182
     23 C18        -6.4232   -0.0114    0.0353 C.ar      1 <0>        -0.1064
     24 C19        -5.1446    0.5111    0.0312 C.ar      1 <0>        -0.0009
     25 Cl1        -3.7711   -0.5506    0.0190 Cl        1 <0>        -0.0183
     26 Cl2        -9.1231    0.1717    0.0507 Cl        1 <0>        -0.0530
     27 H1          8.5649    5.1432   -1.4967 H         1 <0>         0.0580
     28 H2          7.7667    3.6375   -2.0104 H         1 <0>         0.0552
     29 H3          6.8559    5.1667   -1.9938 H         1 <0>         0.0559
     30 H4          7.0661    5.2652    0.4749 H         1 <0>         0.0721
     31 H5          7.9769    3.7360    0.4584 H         1 <0>         0.0714
     32 H6          6.8741    1.6380   -0.0549 H         1 <0>         0.1287
     33 H7          4.7633    0.3732   -0.0407 H         1 <0>         0.1259
     34 H8          2.5739    4.0491   -0.0111 H         1 <0>         0.1362
     35 H9          4.6914    5.3029   -0.0144 H         1 <0>         0.1284
     36 H10         2.3470    0.4462   -0.0180 H         1 <0>         0.4009
     37 H11        -4.1323    4.6140    0.0464 H         1 <0>         0.2088
     38 H12        -5.9280    3.8108    0.0626 H         1 <0>         0.1454
     39 H13        -8.1976    2.8630    0.0587 H         1 <0>         0.1456
     40 H14        -6.5684   -1.0816    0.0310 H         1 <0>         0.1469
@<TRIPOS>BOND
     1    1    2 1
     2    1   27 1
     3    1   28 1
     4    1   29 1
     5    2    3 1
     6    2   30 1
     7    2   31 1
     8    3    8 ar
     9    3    4 ar
    10    4    5 ar
    11    4   32 1
    12    5    6 ar
    13    5   33 1
    14    6    7 ar
    15    6    9 1
    16    7    8 ar
    17    7   34 1
    18    8   35 1
    19    9   10 1
    20    9   36 1
    21   10   11 2
    22   11   12 1
    23   11   14 1
    24   12   13 3
    25   14   18 1
    26   14   15 2
    27   15   16 1
    28   16   17 2
    29   16   19 1
    30   17   18 1
    31   17   37 1
    32   19   24 ar
    33   19   20 ar
    34   20   21 ar
    35   20   38 1
    36   21   22 ar
    37   21   39 1
    38   22   23 ar
    39   22   26 1
    40   23   24 ar
    41   23   40 1
    42   24   25 1
