@<TRIPOS>MOLECULE
ZINC24580102
   67    68     0     0     0
SMALL
USER_CHARGES
4-tert-butyl-N-[3-[N'-(4-diethylaminobenzoyl)hydrazino]-3-oxo-propyl]benzenesulfonamide
@<TRIPOS>ATOM
      1 C1         -2.1278   14.0602   -5.9884 C.3       1 <0>        -0.1752
      2 C2         -3.5786   13.5824   -5.8999 C.3       1 <0>         0.1112
      3 N1         -3.8325   12.5947   -6.9517 N.pl3     1 <0>        -0.6165
      4 C3         -4.3136   13.0304   -8.2650 C.3       1 <0>         0.1109
      5 C4         -5.8435   13.0481   -8.2676 C.3       1 <0>        -0.1751
      6 C5         -3.6168   11.2436   -6.7034 C.ar      1 <0>         0.2513
      7 C6         -3.8586   10.3062   -7.7039 C.ar      1 <0>        -0.2093
      8 C7         -3.6461    8.9685   -7.4613 C.ar      1 <0>        -0.0019
      9 C8         -3.1870    8.5511   -6.2085 C.ar      1 <0>        -0.1975
     10 C9         -2.9507    9.4943   -5.2041 C.ar      1 <0>        -0.0320
     11 C10        -3.1591   10.8312   -5.4549 C.ar      1 <0>        -0.2075
     12 C11        -2.9581    7.1178   -5.9451 C.2       1 <0>         0.5706
     13 O1         -3.1688    6.2980   -6.8181 O.2       1 <0>        -0.5519
     14 N2         -2.5155    6.7169   -4.7369 N.am      1 <0>        -0.5356
     15 N3         -2.2981    5.3557   -4.4867 N.am      1 <0>        -0.5308
     16 C12        -1.8555    4.9548   -3.2785 C.2       1 <0>         0.5182
     17 O2         -1.6453    5.7725   -2.4078 O.2       1 <0>        -0.5459
     18 C13        -1.6217    3.4906   -3.0094 C.3       1 <0>        -0.1374
     19 C14        -1.1248    3.3089   -1.5738 C.3       1 <0>         0.1315
     20 N4         -0.8975    1.8855   -1.3122 N.pl3     1 <0>        -1.1244
     21 S1         -0.0172    1.4168    0.0098 S.o2      1 <0>         2.6960
     22 O3          0.0021   -0.0041    0.0020 O.2       1 <0>        -0.9576
     23 O4          1.1718    2.1948    0.0027 O.2       1 <0>        -0.9535
     24 C15        -0.9267    1.9002    1.4394 C.ar      1 <0>        -0.6887
     25 C16        -0.7172    3.1446    2.0038 C.ar      1 <0>        -0.0163
     26 C17        -1.4339    3.5256    3.1228 C.ar      1 <0>        -0.1423
     27 C18        -2.3533    2.6585    3.6830 C.ar      1 <0>        -0.0117
     28 C19        -2.5594    1.4122    3.1214 C.ar      1 <0>        -0.1384
     29 C20        -1.8458    1.0330    1.9999 C.ar      1 <0>        -0.0172
     30 C21        -3.1312    3.0720    4.9056 C.3       1 <0>        -0.0382
     31 C22        -2.8394    2.0983    6.0492 C.3       1 <0>        -0.1424
     32 C23        -2.7163    4.4850    5.3204 C.3       1 <0>        -0.1496
     33 C24        -4.6279    3.0523    4.5886 C.3       1 <0>        -0.1415
     34 H1         -1.9372   14.8018   -5.1987 H         1 <0>         0.0675
     35 H2         -1.9523   14.5192   -6.9725 H         1 <0>         0.0577
     36 H3         -1.4509   13.2031   -5.8576 H         1 <0>         0.0605
     37 H4         -3.7541   13.1234   -4.9158 H         1 <0>         0.0796
     38 H5         -4.2556   14.4395   -6.0306 H         1 <0>         0.0778
     39 H6         -3.9349   14.0411   -8.4774 H         1 <0>         0.0779
     40 H7         -3.9537   12.3342   -9.0369 H         1 <0>         0.0802
     41 H8         -6.2047   13.3753   -9.2538 H         1 <0>         0.0677
     42 H9         -6.2034   13.7443   -7.4958 H         1 <0>         0.0575
     43 H10        -6.2222   12.0374   -8.0552 H         1 <0>         0.0606
     44 H11        -4.2136   10.6293   -8.6714 H         1 <0>         0.1309
     45 H12        -3.8334    8.2418   -8.2379 H         1 <0>         0.1356
     46 H13        -2.6005    9.1745   -4.2338 H         1 <0>         0.1230
     47 H14        -2.9718   11.5609   -4.6810 H         1 <0>         0.1303
     48 H15        -2.3249    7.4586   -3.9472 H         1 <0>         0.4539
     49 H16        -2.4887    4.6140   -5.2764 H         1 <0>         0.4589
     50 H17        -2.5633    2.9381   -3.1442 H         1 <0>         0.1084
     51 H18        -0.8667    3.1049   -3.7103 H         1 <0>         0.1126
     52 H19        -0.1832    3.8614   -1.4390 H         1 <0>         0.0947
     53 H20        -1.8798    3.6946   -0.8729 H         1 <0>         0.0717
     54 H21        -1.4425    1.1259   -1.8918 H         1 <0>         0.4425
     55 H22         0.0041    3.8204    1.5686 H         1 <0>         0.1400
     56 H23        -1.2731    4.4993    3.5613 H         1 <0>         0.1373
     57 H24        -3.2776    0.7348    3.5590 H         1 <0>         0.1313
     58 H25        -2.0065    0.0592    1.5613 H         1 <0>         0.1394
     59 H26        -3.4072    2.4001    6.9416 H         1 <0>         0.0642
     60 H27        -1.7634    2.1123    6.2771 H         1 <0>         0.0590
     61 H28        -3.1378    1.0824    5.7509 H         1 <0>         0.0598
     62 H29        -3.2842    4.7868    6.2128 H         1 <0>         0.0633
     63 H30        -2.9262    5.1850    4.4982 H         1 <0>         0.0615
     64 H31        -1.6403    4.4991    5.5484 H         1 <0>         0.0616
     65 H32        -5.1957    3.3541    5.4811 H         1 <0>         0.0640
     66 H33        -4.9262    2.0364    4.2905 H         1 <0>         0.0594
     67 H34        -4.8378    3.7522    3.7664 H         1 <0>         0.0584
@<TRIPOS>BOND
     1    1    2 1
     2    1   34 1
     3    1   35 1
     4    1   36 1
     5    2    3 1
     6    2   37 1
     7    2   38 1
     8    3    4 1
     9    3    6 1
    10    4    5 1
    11    4   39 1
    12    4   40 1
    13    5   41 1
    14    5   42 1
    15    5   43 1
    16    6   11 ar
    17    6    7 ar
    18    7    8 ar
    19    7   44 1
    20    8    9 ar
    21    8   45 1
    22    9   10 ar
    23    9   12 1
    24   10   11 ar
    25   10   46 1
    26   11   47 1
    27   12   13 2
    28   12   14 am
    29   14   15 1
    30   14   48 1
    31   15   16 am
    32   15   49 1
    33   16   17 2
    34   16   18 1
    35   18   19 1
    36   18   50 1
    37   18   51 1
    38   19   20 1
    39   19   52 1
    40   19   53 1
    41   20   21 1
    42   20   54 1
    43   21   22 2
    44   21   23 2
    45   21   24 1
    46   24   29 ar
    47   24   25 ar
    48   25   26 ar
    49   25   55 1
    50   26   27 ar
    51   26   56 1
    52   27   28 ar
    53   27   30 1
    54   28   29 ar
    55   28   57 1
    56   29   58 1
    57   30   31 1
    58   30   32 1
    59   30   33 1
    60   31   59 1
    61   31   60 1
    62   31   61 1
    63   32   62 1
    64   32   63 1
    65   32   64 1
    66   33   65 1
    67   33   66 1
    68   33   67 1
