@<TRIPOS>MOLECULE
ZINC58961522
   64    66     0     0     0
SMALL
USER_CHARGES

@<TRIPOS>ATOM
      1 C1         -0.3689    1.5335   -1.3744 C.3       1 <0>        -0.1506
      2 C2         -0.3060    0.0312   -1.0915 C.3       1 <0>         0.0566
      3 O1          0.3988   -0.6234   -2.1483 O.3       1 <0>        -0.3228
      4 C3          0.5448   -1.9710   -2.0505 C.ar      1 <0>         0.1065
      5 C4          0.0155   -2.6500   -0.9627 C.ar      1 <0>        -0.2124
      6 C5          0.1649   -4.0200   -0.8658 C.ar      1 <0>        -0.0594
      7 C6          0.8416   -4.7142   -1.8516 C.ar      1 <0>        -0.0748
      8 C7          1.3704   -4.0397   -2.9365 C.ar      1 <0>        -0.0609
      9 C8          1.2184   -2.6706   -3.0412 C.ar      1 <0>        -0.1581
     10 C9          1.0034   -6.2086   -1.7431 C.3       1 <0>         0.2184
     11 H1          0.8537   -6.4886   -0.7004 H         1 <0>         0.0458
     12 C10        -0.0892   -6.8630   -2.5692 C.2       1 <0>        -0.4494
     13 C11         0.3263   -7.7223   -3.5964 C.2       1 <0>         0.3398
     14 N1          1.6038   -7.9325   -3.8104 N.2       1 <0>        -0.6635
     15 C12         2.5924   -7.3742   -3.1038 C.2       1 <0>         0.3497
     16 N2          2.3885   -6.5476   -2.1143 N.2       1 <0>        -0.6208
     17 S1          4.2542   -7.7726   -3.5335 S.3       1 <0>         0.0123
     18 C13         5.2523   -6.8231   -2.3533 C.3       1 <0>        -0.1393
     19 C14         6.7147   -7.0767   -2.6140 C.2       1 <0>         0.5346
     20 O2          7.0506   -7.8244   -3.5079 O.2       1 <0>        -0.5005
     21 N3          7.6494   -6.4726   -1.8537 N.am      1 <0>        -0.6732
     22 C15         9.0059   -6.6214   -2.1629 C.ar      1 <0>         0.1513
     23 C16         9.9521   -6.6512   -1.1466 C.ar      1 <0>        -0.1493
     24 C17        11.2901   -6.7982   -1.4550 C.ar      1 <0>        -0.0982
     25 C18        11.6884   -6.9152   -2.7743 C.ar      1 <0>        -0.1081
     26 C19        10.7490   -6.8855   -3.7883 C.ar      1 <0>        -0.0672
     27 C20         9.4084   -6.7454   -3.4860 C.ar      1 <0>        -0.1176
     28 C21        11.1874   -7.0129   -5.2245 C.3       1 <0>        -0.1170
     29 C22        13.1494   -7.0750   -3.1073 C.3       1 <0>        -0.1137
     30 C23        -0.7005   -8.4091   -4.4596 C.3       1 <0>        -0.0842
     31 C24        -1.4104   -6.6270   -2.3239 C.2       1 <0>         0.4754
     32 O3         -2.3494   -7.1223   -3.1552 O.3       1 <0>        -0.6662
     33 O4         -1.7772   -5.8984   -1.2503 O.3       1 <0>        -0.3367
     34 C25        -3.1775   -5.6908   -1.0547 C.3       1 <0>         0.0684
     35 C26        -3.3974   -4.8487    0.2036 C.3       1 <0>        -0.1492
     36 H2          0.6429    1.9338   -1.4389 H         1 <0>         0.0638
     37 H3         -0.8880    1.7042   -2.3176 H         1 <0>         0.0642
     38 H4         -0.9065    2.0328   -0.5683 H         1 <0>         0.0741
     39 H5          0.2131   -0.1394   -0.1483 H         1 <0>         0.0572
     40 H6         -1.3177   -0.3691   -1.0270 H         1 <0>         0.0576
     41 H7         -0.5125   -2.1081   -0.1920 H         1 <0>         0.1163
     42 H8         -0.2470   -4.5491   -0.0191 H         1 <0>         0.1213
     43 H9          1.8988   -4.5842   -3.7051 H         1 <0>         0.1148
     44 H10         1.6278   -2.1448   -3.8910 H         1 <0>         0.1187
     45 H11         5.0411   -5.7603   -2.4714 H         1 <0>         0.1201
     46 H12         5.0054   -7.1319   -1.3375 H         1 <0>         0.1186
     47 H13         7.3817   -5.9346   -1.0923 H         1 <0>         0.4131
     48 H14         9.6418   -6.5591   -0.1162 H         1 <0>         0.1245
     49 H15        12.0264   -6.8214   -0.6652 H         1 <0>         0.1238
     50 H16         8.6746   -6.7275   -4.2782 H         1 <0>         0.1368
     51 H17        11.1953   -8.0648   -5.5100 H         1 <0>         0.0722
     52 H18        10.4948   -6.4675   -5.8655 H         1 <0>         0.0666
     53 H19        12.1893   -6.5984   -5.3366 H         1 <0>         0.0696
     54 H20        13.4039   -8.1347   -3.1265 H         1 <0>         0.0678
     55 H21        13.3495   -6.6355   -4.0845 H         1 <0>         0.0688
     56 H22        13.7516   -6.5703   -2.3517 H         1 <0>         0.0627
     57 H23        -1.2732   -7.6610   -5.0078 H         1 <0>         0.0803
     58 H24        -0.1980   -9.0709   -5.1650 H         1 <0>         0.0478
     59 H25        -1.3729   -8.9920   -3.8302 H         1 <0>         0.0767
     60 H26        -3.5914   -5.1694   -1.9178 H         1 <0>         0.0543
     61 H27        -3.6749   -6.6538   -0.9390 H         1 <0>         0.0548
     62 H28        -2.9834   -5.3702    1.0666 H         1 <0>         0.0599
     63 H29        -2.8999   -3.8858    0.0879 H         1 <0>         0.0600
     64 H30        -4.4654   -4.6904    0.3527 H         1 <0>         0.0677
@<TRIPOS>BOND
     1    1    2 1
     2    1   36 1
     3    1   37 1
     4    1   38 1
     5    2    3 1
     6    2   39 1
     7    2   40 1
     8    3    4 1
     9    4    9 ar
    10    4    5 ar
    11    5    6 ar
    12    5   41 1
    13    6    7 ar
    14    6   42 1
    15    7    8 ar
    16    7   10 1
    17    8    9 ar
    18    8   43 1
    19    9   44 1
    20   10   11 1
    21   10   16 1
    22   10   12 1
    23   12   13 1
    24   12   31 2
    25   13   14 2
    26   13   30 1
    27   14   15 1
    28   15   16 2
    29   15   17 1
    30   17   18 1
    31   18   19 1
    32   18   45 1
    33   18   46 1
    34   19   20 2
    35   19   21 am
    36   21   22 1
    37   21   47 1
    38   22   27 ar
    39   22   23 ar
    40   23   24 ar
    41   23   48 1
    42   24   25 ar
    43   24   49 1
    44   25   26 ar
    45   25   29 1
    46   26   27 ar
    47   26   28 1
    48   27   50 1
    49   28   51 1
    50   28   52 1
    51   28   53 1
    52   29   54 1
    53   29   55 1
    54   29   56 1
    55   30   57 1
    56   30   58 1
    57   30   59 1
    58   31   32 1
    59   31   33 1
    60   33   34 1
    61   34   35 1
    62   34   60 1
    63   34   61 1
    64   35   62 1
    65   35   63 1
    66   35   64 1
