@<TRIPOS>MOLECULE
ZINC20226925
   44    46     0     0     0
SMALL
USER_CHARGES
2-[[(5Z)-5-[(4-ethoxy-3-methoxy-phenyl)methylene]-4-oxo-thiazol-2-yl]amino]benzoic acid
@<TRIPOS>ATOM
      1 C1          3.4836  -10.5797    0.3104 C.3       1 <0>        -0.1499
      2 C2          3.8124   -9.0938    0.1519 C.3       1 <0>         0.0483
      3 O1          4.9245   -8.7605    0.9851 O.3       1 <0>        -0.3085
      4 C3          5.3472   -7.4699    0.9622 C.ar      1 <0>         0.0934
      5 C4          4.7020   -6.5445    0.1523 C.ar      1 <0>        -0.1644
      6 C5          5.1263   -5.2345    0.1238 C.ar      1 <0>        -0.1028
      7 C6          6.2110   -4.8331    0.9135 C.ar      1 <0>        -0.0394
      8 C7          6.8638   -5.7685    1.7261 C.ar      1 <0>        -0.1618
      9 C8          6.4281   -7.0784    1.7516 C.ar      1 <0>         0.0911
     10 O2          7.0565   -7.9885    2.5430 O.3       1 <0>        -0.3109
     11 C9          8.1562   -7.5183    3.3252 C.3       1 <0>         0.0237
     12 C10         6.6661   -3.4377    0.8851 C.2       1 <0>        -0.0582
     13 C11         5.8684   -2.4742    0.3577 C.2       1 <0>        -0.1624
     14 C12         6.1599   -1.0489    0.0776 C.2       1 <0>         0.5200
     15 O3          7.2506   -0.5556    0.3169 O.2       1 <0>        -0.5669
     16 N1          5.1791   -0.3445   -0.4426 N.2       1 <0>        -0.7096
     17 C13         3.9921   -0.8667   -0.7064 C.2       1 <0>         0.3874
     18 S1          4.1675   -2.5666   -0.1874 S.3       1 <0>        -0.1075
     19 N2          2.8907   -0.2497   -1.2435 N.2       1 <0>        -0.4689
     20 C14         2.9758    1.0678   -1.6809 C.ar      1 <0>         0.1566
     21 C15         4.2001    1.7240   -1.6862 C.ar      1 <0>        -0.1920
     22 C16         4.2810    3.0332   -2.1147 C.ar      1 <0>        -0.1217
     23 C17         3.1466    3.7012   -2.5482 C.ar      1 <0>        -0.1817
     24 C18         1.9244    3.0655   -2.5553 C.ar      1 <0>        -0.0803
     25 C19         1.8258    1.7398   -2.1239 C.ar      1 <0>        -0.1266
     26 C20         0.5217    1.0539   -2.1282 C.2       1 <0>         0.4910
     27 O4          0.4485   -0.1143   -1.8018 O.co2     1 <0>        -0.5973
     28 O5         -0.5891    1.7205   -2.4996 O.co2     1 <0>        -0.7919
     29 H1          2.6275  -10.8362   -0.3310 H         1 <0>         0.0761
     30 H2          3.2310  -10.7894    1.3603 H         1 <0>         0.0643
     31 H3          4.3559  -11.1817    0.0158 H         1 <0>         0.0634
     32 H4          4.0650   -8.8841   -0.8980 H         1 <0>         0.0620
     33 H5          2.9401   -8.4918    0.4464 H         1 <0>         0.0640
     34 H6          3.8655   -6.8530   -0.4571 H         1 <0>         0.1358
     35 H7          4.6226   -4.5171   -0.5071 H         1 <0>         0.1512
     36 H8          7.7036   -5.4652    2.3337 H         1 <0>         0.1357
     37 H9          8.5696   -8.3504    3.9140 H         1 <0>         0.0953
     38 H10         7.8105   -6.7249    4.0041 H         1 <0>         0.0549
     39 H11         8.9349   -7.1177    2.6595 H         1 <0>         0.0542
     40 H12         7.6535   -3.1728    1.2912 H         1 <0>         0.1429
     41 H13         5.0888    1.2104   -1.3503 H         1 <0>         0.1749
     42 H14         5.2345    3.5404   -2.1127 H         1 <0>         0.0987
     43 H15         3.2211    4.7257   -2.8819 H         1 <0>         0.0989
     44 H16         1.0436    3.5910   -2.8934 H         1 <0>         0.1191
@<TRIPOS>BOND
     1    1    2 1
     2    1   29 1
     3    1   30 1
     4    1   31 1
     5    2    3 1
     6    2   32 1
     7    2   33 1
     8    3    4 1
     9    4    9 ar
    10    4    5 ar
    11    5    6 ar
    12    5   34 1
    13    6    7 ar
    14    6   35 1
    15    7    8 ar
    16    7   12 1
    17    8    9 ar
    18    8   36 1
    19    9   10 1
    20   10   11 1
    21   11   37 1
    22   11   38 1
    23   11   39 1
    24   12   13 2
    25   12   40 1
    26   13   18 1
    27   13   14 1
    28   14   15 2
    29   14   16 1
    30   16   17 2
    31   17   18 1
    32   17   19 1
    33   19   20 1
    34   20   25 ar
    35   20   21 ar
    36   21   22 ar
    37   21   41 1
    38   22   23 ar
    39   22   42 1
    40   23   24 ar
    41   23   43 1
    42   24   25 ar
    43   24   44 1
    44   25   26 1
    45   26   27 2
    46   26   28 1
