@<TRIPOS>MOLECULE
ZINC21240060
   56    57     0     0     0
SMALL
USER_CHARGES
[2-(6-amino-1-isobutyl-3-methyl-2,4-dioxo-pyrimidin-5-yl)-2-oxo-ethyl] 2-[(4-chloro-3-nitro-benzoyl)amino]acetate
@<TRIPOS>ATOM
      1 C1          5.7872   11.2979   -1.7444 C.3       1 <0>        -0.1487
      2 C2          5.8133    9.7711   -1.6485 C.3       1 <0>        -0.1148
      3 C3          7.1169    9.2445   -2.2519 C.3       1 <0>        -0.1454
      4 C4          5.7247    9.3508   -0.1800 C.3       1 <0>         0.0969
      5 N1          5.6294    7.8914   -0.0947 N.am      1 <0>        -0.5412
      6 C5          4.3990    7.2989   -0.1115 C.2       1 <0>         0.5711
      7 C6          4.3176    5.8984   -0.0229 C.2       1 <0>        -0.4710
      8 C7          5.5731    5.1424    0.0716 C.2       1 <0>         0.5791
      9 O1          5.5628    3.9275    0.1452 O.2       1 <0>        -0.5080
     10 N2          6.7381    5.8226    0.0745 N.am      1 <0>        -0.5592
     11 C8          6.7533    7.1630   -0.0070 C.2       1 <0>         0.7122
     12 O2          7.8243    7.7376   -0.0016 O.2       1 <0>        -0.5198
     13 C9          8.0031    5.0895    0.1675 C.3       1 <0>         0.0745
     14 C10         3.0696    5.2395   -0.0303 C.2       1 <0>         0.4488
     15 O3          2.0415    5.8858   -0.0052 O.2       1 <0>        -0.4927
     16 C11         3.0126    3.7341   -0.0694 C.3       1 <0>         0.0407
     17 O4          1.6263    3.3021   -0.0698 O.3       1 <0>        -0.3362
     18 C12         1.4002    1.9794   -0.1028 C.2       1 <0>         0.4625
     19 O5          2.3298    1.2081   -0.1304 O.2       1 <0>        -0.5017
     20 C13        -0.0132    1.4565   -0.1053 C.3       1 <0>         0.1288
     21 N3          0.0080   -0.0079   -0.1440 N.am      1 <0>        -0.7285
     22 C14        -1.1492   -0.6986   -0.1530 C.2       1 <0>         0.5694
     23 O6         -2.2106   -0.1065   -0.1290 O.2       1 <0>        -0.5191
     24 C15        -1.1278   -2.1758   -0.1920 C.ar      1 <0>        -0.1274
     25 C16         0.0898   -2.8585   -0.2254 C.ar      1 <0>        -0.0242
     26 C17         0.1034   -4.2368   -0.2564 C.ar      1 <0>        -0.1143
     27 C18        -1.0877   -4.9440   -0.2660 C.ar      1 <0>         0.0352
     28 C19        -2.2985   -4.2723   -0.2383 C.ar      1 <0>        -0.0477
     29 C20        -2.3249   -2.8939   -0.2014 C.ar      1 <0>         0.0150
     30 N4         -3.5668   -5.0353   -0.2478 N.pl3     1 <0>         0.0243
     31 O7         -4.6324   -4.4458   -0.2230 O.2       1 <0>        -0.1504
     32 O8         -3.5450   -6.2527   -0.2804 O.3       1 <0>        -0.1298
     33 Cl1        -1.0626   -6.6792   -0.3124 Cl        1 <0>         0.0087
     34 N5          3.2701    8.0524   -0.2073 N.pl3     1 <0>        -0.8129
     35 H1          4.8500   11.6765   -1.3106 H         1 <0>         0.0600
     36 H2          5.8510   11.6001   -2.8001 H         1 <0>         0.0675
     37 H3          6.6419   11.7147   -1.1914 H         1 <0>         0.0645
     38 H4          4.9586    9.3542   -2.2015 H         1 <0>         0.0755
     39 H5          7.1357    8.1468   -2.1830 H         1 <0>         0.0485
     40 H6          7.9716    9.6613   -1.6989 H         1 <0>         0.0690
     41 H7          7.1806    9.5468   -3.3076 H         1 <0>         0.0587
     42 H8          6.6242    9.6914    0.3538 H         1 <0>         0.1197
     43 H9          4.8331    9.8039    0.2779 H         1 <0>         0.0961
     44 H10         8.8413    5.8017    0.1560 H         1 <0>         0.1034
     45 H11         8.0930    4.4035   -0.6877 H         1 <0>         0.0828
     46 H12         8.0247    4.5129    1.1040 H         1 <0>         0.0829
     47 H13         3.5098    3.3719   -0.9813 H         1 <0>         0.1113
     48 H14         3.5240    3.3247    0.8143 H         1 <0>         0.1179
     49 H15        -0.5298    1.7918    0.8061 H         1 <0>         0.1201
     50 H16        -0.5441    1.8390   -0.9895 H         1 <0>         0.1200
     51 H17         0.9685   -0.5437   -0.1657 H         1 <0>         0.4353
     52 H18         1.0190   -2.3081   -0.2228 H         1 <0>         0.1577
     53 H19         1.0446   -4.7661   -0.2777 H         1 <0>         0.1673
     54 H20        -3.2697   -2.3711   -0.1801 H         1 <0>         0.1767
     55 H21         2.2836    7.5659   -0.2201 H         1 <0>         0.4654
     56 H22         3.3440    9.1480   -0.2720 H         1 <0>         0.4254
@<TRIPOS>BOND
     1    1    2 1
     2    1   35 1
     3    1   36 1
     4    1   37 1
     5    2    3 1
     6    2    4 1
     7    2   38 1
     8    3   39 1
     9    3   40 1
    10    3   41 1
    11    4    5 1
    12    4   42 1
    13    4   43 1
    14    5   11 am
    15    5    6 1
    16    6    7 2
    17    6   34 1
    18    7    8 1
    19    7   14 1
    20    8    9 2
    21    8   10 am
    22   10   11 am
    23   10   13 1
    24   11   12 2
    25   13   44 1
    26   13   45 1
    27   13   46 1
    28   14   15 2
    29   14   16 1
    30   16   17 1
    31   16   47 1
    32   16   48 1
    33   17   18 1
    34   18   19 2
    35   18   20 1
    36   20   21 1
    37   20   49 1
    38   20   50 1
    39   21   22 am
    40   21   51 1
    41   22   23 2
    42   22   24 1
    43   24   29 ar
    44   24   25 ar
    45   25   26 ar
    46   25   52 1
    47   26   27 ar
    48   26   53 1
    49   27   28 ar
    50   27   33 1
    51   28   29 ar
    52   28   30 1
    53   29   54 1
    54   30   31 2
    55   30   32 1
    56   34   55 1
    57   34   56 1
