@<TRIPOS>MOLECULE
ZINC13143684
   52    55     0     0     0
SMALL
USER_CHARGES
(1R,4S,5S,6R)-6-[[(6S)-3-ethoxycarbonyl-6-methyl-4,5,6,7-tetrahydrobenzothiophen-2-yl]carbamoyl]bicyclo[2.2.1]hept-2-ene-5-carboxylic acid
@<TRIPOS>ATOM
      1 C1          0.1768    7.9626   -6.4390 C.3       1 <0>        -0.1531
      2 C2         -0.7906    6.8043   -6.6908 C.3       1 <0>         0.0603
      3 O1         -1.7794    6.7599   -5.6284 O.3       1 <0>        -0.3395
      4 C3         -2.7130    5.7891   -5.7010 C.2       1 <0>         0.5434
      5 O2         -2.7004    5.0013   -6.6276 O.2       1 <0>        -0.5111
      6 C4         -3.7418    5.6837   -4.6642 C.2       1 <0>        -0.2402
      7 C5         -5.0082    6.3868   -4.7842 C.2       1 <0>        -0.0542
      8 C6         -5.8676    6.2029   -3.7590 C.2       1 <0>        -0.2331
      9 S1         -5.0230    5.1116   -2.6499 S.3       1 <0>         0.2420
     10 C7         -3.5443    4.9077   -3.5295 C.2       1 <0>         0.1271
     11 N1         -2.4358    4.1495   -3.1868 N.am      1 <0>        -0.6051
     12 C8         -2.4254    3.4549   -2.0319 C.2       1 <0>         0.5327
     13 O3         -3.3859    3.4933   -1.2925 O.2       1 <0>        -0.4885
     14 C9         -1.2202    2.6304   -1.6593 C.3       1 <0>        -0.0858
     15 H1         -0.7677    2.1915   -2.5486 H         1 <0>         0.0896
     16 C10        -1.6054    1.5199   -0.6399 C.3       1 <0>        -0.0562
     17 H2         -2.5122    0.9581   -0.8640 H         1 <0>         0.1001
     18 C11        -1.5753    2.3414    0.7049 C.3       1 <0>        -0.1125
     19 C12        -0.0822    2.7901    0.4996 C.3       1 <0>        -0.0570
     20 H3          0.3808    3.3693    1.2985 H         1 <0>         0.0992
     21 C13        -0.1875    3.4919   -0.8919 C.3       1 <0>        -0.1207
     22 H4          0.7760    3.4794   -1.4013 H         1 <0>         0.0790
     23 C14        -0.6877    4.9049   -0.7361 C.2       1 <0>         0.4578
     24 O4         -1.3400    5.2114    0.2337 O.co2     1 <0>        -0.6154
     25 C15         0.5575    1.4323    0.1851 C.2       1 <0>        -0.1560
     26 C16        -0.3215    0.6990   -0.4682 C.2       1 <0>        -0.1801
     27 C17        -7.2353    6.7946   -3.6097 C.3       1 <0>        -0.0232
     28 C18        -7.6745    7.3477   -4.9733 C.3       1 <0>        -0.0868
     29 H5         -7.9034    6.5213   -5.6462 H         1 <0>         0.0746
     30 C19        -6.5335    8.1868   -5.5558 C.3       1 <0>        -0.1110
     31 C20        -5.3749    7.2761   -5.9659 C.3       1 <0>        -0.0602
     32 C21        -8.9163    8.2235   -4.7957 C.3       1 <0>        -0.1454
     33 H6          0.9190    7.9959   -7.2365 H         1 <0>         0.0757
     34 H7         -0.3774    8.9010   -6.4190 H         1 <0>         0.0648
     35 H8          0.6779    7.8161   -5.4822 H         1 <0>         0.0733
     36 H9         -0.2364    5.8659   -6.7108 H         1 <0>         0.0675
     37 H10        -1.2917    6.9509   -7.6476 H         1 <0>         0.0654
     38 H11        -1.6676    4.1187   -3.7782 H         1 <0>         0.4181
     39 H12        -1.7049    1.7122    1.5855 H         1 <0>         0.0639
     40 H13        -2.2691    3.1821    0.6948 H         1 <0>         0.1074
     41 H14         1.5585    1.1283    0.4537 H         1 <0>         0.1227
     42 H15        -0.1628   -0.3076   -0.8259 H         1 <0>         0.1235
     43 H16        -7.9347    6.0250   -3.2831 H         1 <0>         0.0766
     44 H17        -7.2085    7.6012   -2.8770 H         1 <0>         0.0799
     45 H18        -6.8933    8.7307   -6.4292 H         1 <0>         0.0665
     46 H19        -6.1863    8.8967   -4.8050 H         1 <0>         0.0681
     47 H20        -4.5146    7.8835   -6.2470 H         1 <0>         0.0711
     48 H21        -5.6784    6.6561   -6.8095 H         1 <0>         0.0750
     49 H22        -8.6840    9.0520   -4.1265 H         1 <0>         0.0564
     50 H23        -9.2264    8.6151   -5.7645 H         1 <0>         0.0549
     51 H24        -9.7234    7.6275   -4.3695 H         1 <0>         0.0557
     52 O5         -0.4085    5.8230   -1.6747 O.co2     1 <0>        -0.7569
@<TRIPOS>BOND
     1    1    2 1
     2    1   33 1
     3    1   34 1
     4    1   35 1
     5    2    3 1
     6    2   36 1
     7    2   37 1
     8    3    4 1
     9    4    5 2
    10    4    6 1
    11    6   10 2
    12    6    7 1
    13    7   31 1
    14    7    8 2
    15    8    9 1
    16    8   27 1
    17    9   10 1
    18   10   11 1
    19   11   12 am
    20   11   38 1
    21   12   13 2
    22   12   14 1
    23   14   15 1
    24   14   21 1
    25   14   16 1
    26   16   17 1
    27   16   26 1
    28   16   18 1
    29   18   19 1
    30   18   39 1
    31   18   40 1
    32   19   20 1
    33   19   21 1
    34   19   25 1
    35   21   22 1
    36   21   23 1
    37   23   24 2
    38   23   52 1
    39   25   26 2
    40   25   41 1
    41   26   42 1
    42   27   28 1
    43   27   43 1
    44   27   44 1
    45   28   29 1
    46   28   30 1
    47   28   32 1
    48   30   31 1
    49   30   45 1
    50   30   46 1
    51   31   47 1
    52   31   48 1
    53   32   49 1
    54   32   50 1
    55   32   51 1
