@<TRIPOS>MOLECULE
ZINC45292601
   65    68     0     0     0
SMALL
USER_CHARGES

@<TRIPOS>ATOM
      1 C1          0.5649    1.0094   -0.4952 C.3       1 <0>        -0.1173
      2 C2          0.4067   -0.4891   -0.5200 C.ar      1 <0>        -0.0808
      3 C3          0.1633   -1.1387   -1.7157 C.ar      1 <0>        -0.1222
      4 C4          0.0182   -2.5132   -1.7384 C.ar      1 <0>        -0.1047
      5 C5          0.1169   -3.2382   -0.5656 C.ar      1 <0>        -0.0887
      6 C6          0.3612   -2.5886    0.6300 C.ar      1 <0>        -0.0806
      7 C7          0.5106   -1.2146    0.6521 C.ar      1 <0>        -0.1232
      8 C8         -0.0423   -4.7365   -0.5902 C.3       1 <0>         0.1759
      9 H1         -0.5650   -5.0315   -1.5001 H         1 <0>         0.0752
     10 C9          1.3169   -5.3867   -0.5586 C.ar      1 <0>        -0.1094
     11 C10         1.9475   -5.6118    0.6508 C.ar      1 <0>        -0.0926
     12 C11         3.1942   -6.2081    0.6798 C.ar      1 <0>        -0.1222
     13 C12         3.8102   -6.5798   -0.5006 C.ar      1 <0>        -0.1168
     14 C13         3.1792   -6.3556   -1.7100 C.ar      1 <0>        -0.1206
     15 C14         1.9306   -5.7631   -1.7387 C.ar      1 <0>        -0.1104
     16 O1         -0.7967   -5.1542    0.5492 O.3       1 <0>        -0.3567
     17 C15        -1.5714   -6.3353    0.3323 C.3       1 <0>         0.0299
     18 C16        -2.3333   -6.6875    1.6115 C.3       1 <0>         0.1175
     19 H2         -1.6310   -6.7746    2.4405 H         1 <0>         0.1046
     20 C17        -3.0638   -8.0181    1.4200 C.3       1 <0>         0.0250
     21 N1         -3.7954   -8.3563    2.6482 N.3       1 <0>        -0.5242
     22 C18        -2.8689   -8.6146    3.7585 C.3       1 <0>         0.0376
     23 C19        -3.6665   -8.7840    5.0560 C.3       1 <0>         0.1255
     24 N2         -4.6881   -9.8208    4.8444 N.pl3     1 <0>        -0.6009
     25 C20        -5.5670   -9.7025    3.6711 C.3       1 <0>         0.1265
     26 C21        -4.6946   -9.4969    2.4282 C.3       1 <0>         0.0407
     27 C22        -4.8198  -10.8839    5.7302 C.ar      1 <0>         0.4326
     28 C23        -4.1345  -10.8616    6.9409 C.ar      1 <0>        -0.2418
     29 C24        -4.2746  -11.9260    7.8127 C.ar      1 <0>         0.0180
     30 C25        -5.0985  -12.9813    7.4433 C.ar      1 <0>        -0.3067
     31 C26        -5.7485  -12.9377    6.2265 C.ar      1 <0>         0.2109
     32 N3         -5.6003  -11.9063    5.4166 N.ar      1 <0>        -0.5412
     33 C27        -5.2805  -14.1623    8.3616 C.3       1 <0>         0.5212
     34 F1         -6.3629  -13.9262    9.2159 F         1 <0>        -0.1778
     35 F2         -5.5282  -15.3103    7.6014 F         1 <0>        -0.1779
     36 F3         -4.1194  -14.3466    9.1200 F         1 <0>        -0.1789
     37 O2         -3.2836   -5.6594    1.8983 O.3       1 <0>        -0.5358
     38 H3          1.6137    1.2665   -0.6433 H         1 <0>         0.0711
     39 H4         -0.0335    1.4511   -1.2920 H         1 <0>         0.0668
     40 H5          0.2288    1.3943    0.4676 H         1 <0>         0.0672
     41 H6          0.0862   -0.5723   -2.6320 H         1 <0>         0.1231
     42 H7         -0.1727   -3.0207   -2.6725 H         1 <0>         0.1202
     43 H8          0.4380   -3.1550    1.5463 H         1 <0>         0.1253
     44 H9          0.7051   -0.7075    1.5856 H         1 <0>         0.1226
     45 H10         1.4662   -5.3213    1.5730 H         1 <0>         0.1260
     46 H11         3.6872   -6.3833    1.6246 H         1 <0>         0.1226
     47 H12         4.7846   -7.0451   -0.4780 H         1 <0>         0.1219
     48 H13         3.6606   -6.6457   -2.6322 H         1 <0>         0.1229
     49 H14         1.4360   -5.5913   -2.6833 H         1 <0>         0.1200
     50 H15        -2.2807   -6.1610   -0.4768 H         1 <0>         0.0548
     51 H16        -0.9102   -7.1594    0.0646 H         1 <0>         0.0575
     52 H17        -3.7662   -7.9310    0.5910 H         1 <0>         0.0832
     53 H18        -2.3390   -8.8023    1.2012 H         1 <0>         0.0456
     54 H19        -2.3045   -9.5251    3.5570 H         1 <0>         0.0390
     55 H20        -2.1813   -7.7752    3.8613 H         1 <0>         0.0937
     56 H21        -2.9969   -9.0886    5.8603 H         1 <0>         0.0897
     57 H22        -4.1493   -7.8417    5.3147 H         1 <0>         0.0833
     58 H23        -6.1539  -10.6142    3.5598 H         1 <0>         0.1024
     59 H24        -6.2325   -8.8484    3.7967 H         1 <0>         0.0748
     60 H25        -5.3310   -9.2973    1.5660 H         1 <0>         0.0887
     61 H26        -4.1048  -10.3951    2.2452 H         1 <0>         0.0392
     62 H27        -3.5015  -10.0246    7.1962 H         1 <0>         0.1440
     63 H28        -3.7548  -11.9365    8.7593 H         1 <0>         0.1458
     64 H29        -6.3898  -13.7564    5.9352 H         1 <0>         0.1672
     65 H30        -3.9412   -5.5263    1.2020 H         1 <0>         0.3720
@<TRIPOS>BOND
     1    1    2 1
     2    1   38 1
     3    1   39 1
     4    1   40 1
     5    2    7 ar
     6    2    3 ar
     7    3    4 ar
     8    3   41 1
     9    4    5 ar
    10    4   42 1
    11    5    6 ar
    12    5    8 1
    13    6    7 ar
    14    6   43 1
    15    7   44 1
    16    8    9 1
    17    8   10 1
    18    8   16 1
    19   10   15 ar
    20   10   11 ar
    21   11   12 ar
    22   11   45 1
    23   12   13 ar
    24   12   46 1
    25   13   14 ar
    26   13   47 1
    27   14   15 ar
    28   14   48 1
    29   15   49 1
    30   16   17 1
    31   17   18 1
    32   17   50 1
    33   17   51 1
    34   18   19 1
    35   18   20 1
    36   18   37 1
    37   20   21 1
    38   20   52 1
    39   20   53 1
    40   21   26 1
    41   21   22 1
    42   22   23 1
    43   22   54 1
    44   22   55 1
    45   23   24 1
    46   23   56 1
    47   23   57 1
    48   24   25 1
    49   24   27 1
    50   25   26 1
    51   25   58 1
    52   25   59 1
    53   26   60 1
    54   26   61 1
    55   27   32 ar
    56   27   28 ar
    57   28   29 ar
    58   28   62 1
    59   29   30 ar
    60   29   63 1
    61   30   31 ar
    62   30   33 1
    63   31   32 ar
    64   31   64 1
    65   33   34 1
    66   33   35 1
    67   33   36 1
    68   37   65 1
