@<TRIPOS>MOLECULE
ZINC37358825
   59    64     0     0     0
SMALL
USER_CHARGES

@<TRIPOS>ATOM
      1 C1         -0.0365    1.3182    0.3649 C.ar      1 <0>        -0.1812
      2 C2         -0.0061   -0.0620    0.2859 C.ar      1 <0>        -0.0709
      3 C3          1.2024   -0.7231    0.1870 C.ar      1 <0>        -0.2009
      4 C4          2.3883   -0.0000    0.1669 C.ar      1 <0>         0.2200
      5 C5          2.3541    1.3864    0.2465 C.ar      1 <0>        -0.2006
      6 C6          1.1422    2.0412    0.3453 C.ar      1 <0>        -0.0707
      7 N1          3.6123   -0.6655    0.0675 N.pl3     1 <0>        -0.6299
      8 C7          4.8653    0.0900   -0.0708 C.3       1 <0>         0.1073
      9 C8          5.8218   -0.3382    1.0490 C.3       1 <0>         0.1108
     10 N2          5.8798   -1.8064    1.0812 N.pl3     1 <0>        -0.5736
     11 C9          4.6268   -2.5618    1.2195 C.3       1 <0>         0.1114
     12 C10         3.6708   -2.1334    0.1053 C.3       1 <0>         0.1077
     13 C11         7.0920   -2.4654    0.9827 C.ar      1 <0>         0.6213
     14 N3          7.0888   -3.7946    1.0118 N.ar      1 <0>        -0.5794
     15 C12         8.2062   -4.5053    0.9232 C.ar      1 <0>         0.3784
     16 C13         9.4313   -3.8129    0.7943 C.ar      1 <0>        -0.3880
     17 C14        10.7690   -4.1702    0.6780 C.2       1 <0>         0.4596
     18 N4         11.4859   -3.0330    0.5870 N.pl3     1 <0>        -0.3130
     19 N5         10.6316   -1.9259    0.6422 N.2       1 <0>        -0.3088
     20 C15         9.3894   -2.3395    0.7663 C.ar      1 <0>         0.3738
     21 N6          8.1859   -1.7418    0.8600 N.ar      1 <0>        -0.5809
     22 C16        12.8788   -2.9684    0.4572 C.ar      1 <0>         0.1534
     23 C17        13.6808   -3.9081    1.0917 C.ar      1 <0>        -0.1350
     24 C18        15.0541   -3.8425    0.9617 C.ar      1 <0>        -0.0825
     25 C19        15.6312   -2.8415    0.1999 C.ar      1 <0>        -0.0365
     26 C20        14.8343   -1.9036   -0.4330 C.ar      1 <0>        -0.0846
     27 C21        13.4602   -1.9681   -0.3110 C.ar      1 <0>        -0.0865
     28 Cl1        17.3579   -2.7618    0.0386 Cl        1 <0>        -0.0542
     29 N7         11.2725   -5.4574    0.6596 N.pl3     1 <0>        -0.8280
     30 C22         8.1701   -5.9840    0.9591 C.ar      1 <0>        -0.0972
     31 C23         8.8751   -6.6788    1.9429 C.ar      1 <0>        -0.0807
     32 C24         8.8372   -8.0570    1.9714 C.ar      1 <0>        -0.1283
     33 C25         8.1025   -8.7531    1.0270 C.ar      1 <0>        -0.0723
     34 C26         7.4011   -8.0734    0.0488 C.ar      1 <0>        -0.1516
     35 C27         7.4254   -6.6912    0.0115 C.ar      1 <0>         0.1431
     36 F1          6.7353   -6.0268   -0.9412 F         1 <0>        -0.1231
     37 H1         -0.9831    1.8330    0.4377 H         1 <0>         0.1170
     38 H2         -0.9285   -0.6237    0.3018 H         1 <0>         0.1198
     39 H3          1.2254   -1.8011    0.1256 H         1 <0>         0.1212
     40 H4          3.2743    1.9516    0.2316 H         1 <0>         0.1220
     41 H5          1.1149    3.1190    0.4073 H         1 <0>         0.1200
     42 H6          5.3167   -0.1244   -1.0395 H         1 <0>         0.0673
     43 H7          4.6599    1.1573    0.0117 H         1 <0>         0.0966
     44 H8          6.8163    0.0630    0.8539 H         1 <0>         0.1136
     45 H9          5.4554    0.0345    2.0055 H         1 <0>         0.0709
     46 H10         4.8321   -3.6291    1.1370 H         1 <0>         0.1102
     47 H11         4.1753   -2.3474    2.1882 H         1 <0>         0.0704
     48 H12         2.6768   -2.5342    0.3041 H         1 <0>         0.0958
     49 H13         4.0352   -2.5098   -0.8505 H         1 <0>         0.0665
     50 H14        13.2310   -4.6893    1.6866 H         1 <0>         0.1401
     51 H15        15.6783   -4.5727    1.4552 H         1 <0>         0.1482
     52 H16        15.2872   -1.1232   -1.0266 H         1 <0>         0.1481
     53 H17        12.8386   -1.2385   -0.8087 H         1 <0>         0.1500
     54 H18        10.6724   -6.2142    0.7495 H         1 <0>         0.4210
     55 H19        12.2258   -5.6039    0.5568 H         1 <0>         0.4095
     56 H20         9.4496   -6.1381    2.6805 H         1 <0>         0.1377
     57 H21         9.3826   -8.5949    2.7327 H         1 <0>         0.1402
     58 H22         8.0775   -9.8325    1.0543 H         1 <0>         0.1409
     59 H23         6.8302   -8.6226   -0.6853 H         1 <0>         0.1446
@<TRIPOS>BOND
     1    1    6 ar
     2    1    2 ar
     3    1   37 1
     4    2    3 ar
     5    2   38 1
     6    3    4 ar
     7    3   39 1
     8    4    5 ar
     9    4    7 1
    10    5    6 ar
    11    5   40 1
    12    6   41 1
    13    7   12 1
    14    7    8 1
    15    8    9 1
    16    8   42 1
    17    8   43 1
    18    9   10 1
    19    9   44 1
    20    9   45 1
    21   10   11 1
    22   10   13 1
    23   11   12 1
    24   11   46 1
    25   11   47 1
    26   12   48 1
    27   12   49 1
    28   13   21 ar
    29   13   14 ar
    30   14   15 ar
    31   15   16 ar
    32   15   30 1
    33   16   20 ar
    34   16   17 2
    35   17   18 1
    36   17   29 1
    37   18   19 1
    38   18   22 1
    39   19   20 2
    40   20   21 ar
    41   22   27 ar
    42   22   23 ar
    43   23   24 ar
    44   23   50 1
    45   24   25 ar
    46   24   51 1
    47   25   26 ar
    48   25   28 1
    49   26   27 ar
    50   26   52 1
    51   27   53 1
    52   29   54 1
    53   29   55 1
    54   30   35 ar
    55   30   31 ar
    56   31   32 ar
    57   31   56 1
    58   32   33 ar
    59   32   57 1
    60   33   34 ar
    61   33   58 1
    62   34   35 ar
    63   34   59 1
    64   35   36 1
