@<TRIPOS>MOLECULE
ZINC16610237
   60    62     0     0     0
SMALL
USER_CHARGES
isopropyl (4R)-1,6-dimethyl-2-thioxo-4-[4-[[2-(trifluoromethyl)phenyl]carbamoylamino]phenyl]-3,4-dihydropyrimidine-5-carboxylate
@<TRIPOS>ATOM
      1 C1          2.2199   -8.3331   -2.9873 C.3       1 <0>        -0.1252
      2 C2          2.4191   -7.8439   -1.5759 C.2       1 <0>         0.2376
      3 C3          3.4583   -7.0284   -1.2958 C.2       1 <0>        -0.2610
      4 C4          3.6221   -6.5597    0.1359 C.3       1 <0>         0.2215
      5 H1          4.6074   -6.8726    0.4813 H         1 <0>         0.1027
      6 N1          2.6267   -7.0363    1.1110 N.pl3     1 <0>        -0.6452
      7 C5          1.6433   -7.8498    0.6781 C.2       1 <0>         0.5491
      8 S1          0.4792   -8.4115    1.8007 S.2       1 <0>        -0.5888
      9 N2          1.5467   -8.2328   -0.6013 N.pl3     1 <0>        -0.4946
     10 C6          0.4418   -9.1188   -0.9760 C.3       1 <0>         0.0361
     11 C7          3.5904   -5.0531    0.1381 C.ar      1 <0>        -0.1292
     12 C8          4.7739   -4.3380    0.1279 C.ar      1 <0>        -0.0527
     13 C9          4.7482   -2.9571    0.1295 C.ar      1 <0>        -0.1446
     14 C10         3.5321   -2.2868    0.1417 C.ar      1 <0>         0.1698
     15 C11         2.3453   -3.0078    0.1576 C.ar      1 <0>        -0.1181
     16 C12         2.3777   -4.3885    0.1498 C.ar      1 <0>        -0.0780
     17 N3          3.5026   -0.8878    0.1437 N.am      1 <0>        -0.6787
     18 C13         2.5272   -0.2333   -0.5171 C.2       1 <0>         0.7103
     19 O1          1.6265   -0.8567   -1.0449 O.2       1 <0>        -0.5476
     20 N4          2.5501    1.1121   -0.5929 N.am      1 <0>        -0.6864
     21 C14         1.4891    1.7972   -1.1956 C.ar      1 <0>         0.2136
     22 C15         0.8282    1.2392   -2.2822 C.ar      1 <0>        -0.1220
     23 C16        -0.2153    1.9199   -2.8777 C.ar      1 <0>        -0.0662
     24 C17        -0.6094    3.1512   -2.3866 C.ar      1 <0>        -0.1336
     25 C18         0.0465    3.7094   -1.3050 C.ar      1 <0>        -0.0537
     26 C19         1.0945    3.0359   -0.7081 C.ar      1 <0>        -0.2147
     27 C20         1.8085    3.6448    0.4711 C.3       1 <0>         0.5096
     28 F1          1.2351    4.8844    0.7741 F         1 <0>        -0.1712
     29 F2          1.6926    2.7948    1.5762 F         1 <0>        -0.1741
     30 F3          3.1605    3.8206    0.1577 F         1 <0>        -0.1802
     31 C21         4.3629   -6.6251   -2.3052 C.2       1 <0>         0.5359
     32 O2          4.2118   -7.0139   -3.4483 O.2       1 <0>        -0.5103
     33 O3          5.3936   -5.8090   -2.0007 O.3       1 <0>        -0.3374
     34 C22         6.2681   -5.4420   -3.0697 C.3       1 <0>         0.0821
     35 C23         5.7540   -4.1624   -3.7326 C.3       1 <0>        -0.1689
     36 C24         7.6747   -5.2009   -2.5180 C.3       1 <0>        -0.1498
     37 H2          1.3405   -8.9758   -3.0283 H         1 <0>         0.0786
     38 H3          2.0778   -7.4801   -3.6508 H         1 <0>         0.1078
     39 H4          3.0973   -8.8972   -3.3036 H         1 <0>         0.1083
     40 H5          2.6775   -6.7707    2.0426 H         1 <0>         0.4476
     41 H6         -0.1628   -9.3378   -0.0959 H         1 <0>         0.1415
     42 H7         -0.1763   -8.6302   -1.7292 H         1 <0>         0.0869
     43 H8          0.8426  -10.0477   -1.3818 H         1 <0>         0.0873
     44 H9          5.7194   -4.8599    0.1185 H         1 <0>         0.1354
     45 H10         5.6729   -2.3992    0.1215 H         1 <0>         0.1286
     46 H11         1.3980   -2.4894    0.1713 H         1 <0>         0.1415
     47 H12         1.4551   -4.9498    0.1574 H         1 <0>         0.1157
     48 H13         4.1842   -0.3890    0.6208 H         1 <0>         0.4110
     49 H14         3.3021    1.6056   -0.2297 H         1 <0>         0.4107
     50 H15         1.1331    0.2759   -2.6639 H         1 <0>         0.1533
     51 H16        -0.7269    1.4883   -3.7253 H         1 <0>         0.1380
     52 H17        -1.4287    3.6796   -2.8512 H         1 <0>         0.1384
     53 H18        -0.2607    4.6732   -0.9265 H         1 <0>         0.1437
     54 H19         6.2993   -6.2453   -3.8058 H         1 <0>         0.0838
     55 H20         6.4211   -3.8824   -4.5480 H         1 <0>         0.0722
     56 H21         4.7520   -4.3342   -4.1256 H         1 <0>         0.0597
     57 H22         5.7229   -3.3591   -2.9965 H         1 <0>         0.0644
     58 H23         8.0409   -6.1124   -2.0457 H         1 <0>         0.0645
     59 H24         8.3417   -4.9209   -3.3333 H         1 <0>         0.0778
     60 H25         7.6435   -4.3976   -1.7819 H         1 <0>         0.0669
@<TRIPOS>BOND
     1    1    2 1
     2    1   37 1
     3    1   38 1
     4    1   39 1
     5    2    9 1
     6    2    3 2
     7    3    4 1
     8    3   31 1
     9    4    5 1
    10    4    6 1
    11    4   11 1
    12    6    7 1
    13    6   40 1
    14    7    8 2
    15    7    9 1
    16    9   10 1
    17   10   41 1
    18   10   42 1
    19   10   43 1
    20   11   16 ar
    21   11   12 ar
    22   12   13 ar
    23   12   44 1
    24   13   14 ar
    25   13   45 1
    26   14   15 ar
    27   14   17 1
    28   15   16 ar
    29   15   46 1
    30   16   47 1
    31   17   18 am
    32   17   48 1
    33   18   19 2
    34   18   20 am
    35   20   21 1
    36   20   49 1
    37   21   26 ar
    38   21   22 ar
    39   22   23 ar
    40   22   50 1
    41   23   24 ar
    42   23   51 1
    43   24   25 ar
    44   24   52 1
    45   25   26 ar
    46   25   53 1
    47   26   27 1
    48   27   28 1
    49   27   29 1
    50   27   30 1
    51   31   32 2
    52   31   33 1
    53   33   34 1
    54   34   35 1
    55   34   36 1
    56   34   54 1
    57   35   55 1
    58   35   56 1
    59   35   57 1
    60   36   58 1
    61   36   59 1
    62   36   60 1
