@<TRIPOS>MOLECULE
ZINC32972311
   64    66     0     0     0
SMALL
USER_CHARGES

@<TRIPOS>ATOM
      1 C1         -1.1303    1.6580    0.5278 C.3       1 <0>        -0.1000
      2 C2          0.3031    1.5603    0.9824 C.ar      1 <0>        -0.1632
      3 C3          1.2678    2.3622    0.4040 C.ar      1 <0>        -0.0707
      4 C4          2.5832    2.2736    0.8201 C.ar      1 <0>        -0.1800
      5 C5          2.9379    1.3817    1.8175 C.ar      1 <0>         0.0048
      6 C6          1.9771    0.5772    2.4002 C.ar      1 <0>        -0.1617
      7 C7          0.6542    0.6681    1.9870 C.ar      1 <0>         0.2558
      8 N1         -0.3216   -0.1412    2.5779 N.pl3     1 <0>        -0.7025
      9 C8         -0.0643   -0.7646    3.7650 C.2       1 <0>         0.6039
     10 N2          0.3876   -0.0427    4.8305 N.2       1 <0>        -0.6508
     11 C9          0.0708    1.3837    4.9362 C.3       1 <0>         0.1618
     12 C10         0.5213    1.9002    6.2784 C.2       1 <0>        -0.1828
     13 C11        -0.2412    1.9196    7.4508 C.2       1 <0>         0.0863
     14 N3          0.4887    2.4391    8.4044 N.2       1 <0>        -0.3140
     15 N4          1.7406    2.7671    7.8681 N.pl3     1 <0>        -0.3855
     16 C12         1.7370    2.4216    6.5636 C.2       1 <0>         0.0835
     17 C13         2.8806    2.5898    5.5967 C.3       1 <0>        -0.0843
     18 C14         2.8582    3.3727    8.5962 C.3       1 <0>         0.1089
     19 C15        -1.6585    1.4274    7.5914 C.3       1 <0>        -0.0632
     20 N5         -0.2535   -2.0702    3.8820 N.2       1 <0>        -0.6831
     21 C16        -0.5654   -2.8010    2.8036 C.2       1 <0>         0.5062
     22 O1         -0.5571   -2.2897    1.6981 O.2       1 <0>        -0.6175
     23 C17        -0.9203   -4.2309    2.9555 C.ar      1 <0>        -0.0918
     24 C18        -1.0437   -4.7905    4.2273 C.ar      1 <0>        -0.0618
     25 C19        -1.3746   -6.1232    4.3622 C.ar      1 <0>        -0.1360
     26 C20        -1.5838   -6.9041    3.2395 C.ar      1 <0>        -0.0697
     27 C21        -1.4629   -6.3548    1.9754 C.ar      1 <0>        -0.1404
     28 C22        -1.1382   -5.0220    1.8275 C.ar      1 <0>        -0.0800
     29 C23        -1.9445   -8.3591    3.3940 C.3       1 <0>        -0.0291
     30 C24        -3.2519   -8.4799    4.1795 C.3       1 <0>        -0.1369
     31 C25        -2.1199   -8.9907    2.0115 C.3       1 <0>        -0.1424
     32 C26        -0.8278   -9.0841    4.1479 C.3       1 <0>        -0.1373
     33 Cl1         4.5910    1.2734    2.3365 Cl        1 <0>        -0.0888
     34 H1         -1.6503    2.4078    1.1241 H         1 <0>         0.0616
     35 H2         -1.1594    1.9455   -0.5232 H         1 <0>         0.0610
     36 H3         -1.6181    0.6915    0.6537 H         1 <0>         0.0616
     37 H4          0.9942    3.0590   -0.3744 H         1 <0>         0.1216
     38 H5          3.3356    2.9012    0.3657 H         1 <0>         0.1202
     39 H6          2.2539   -0.1186    3.1784 H         1 <0>         0.1364
     40 H7          0.5852    1.9297    4.1455 H         1 <0>         0.0227
     41 H8         -1.0052    1.5253    4.8349 H         1 <0>         0.0246
     42 H9          2.8119    3.5672    5.1191 H         1 <0>         0.0686
     43 H10         3.8255    2.5140    6.1349 H         1 <0>         0.0607
     44 H11         2.8317    1.8099    4.8369 H         1 <0>         0.0907
     45 H12         3.4847    2.5873    9.0189 H         1 <0>         0.0666
     46 H13         3.4502    3.9811    7.9124 H         1 <0>         0.0797
     47 H14         2.4714    4.0004    9.3989 H         1 <0>         0.0818
     48 H15        -1.6512    0.3730    7.8678 H         1 <0>         0.0770
     49 H16        -2.1678    2.0023    8.3649 H         1 <0>         0.0611
     50 H17        -2.1818    1.5508    6.6432 H         1 <0>         0.0714
     51 H18        -1.1812   -0.2596    2.1443 H         1 <0>         0.3939
     52 H19        -0.8803   -4.1820    5.1044 H         1 <0>         0.1389
     53 H20        -1.4701   -6.5578    5.3463 H         1 <0>         0.1158
     54 H21        -1.6275   -6.9695    1.1028 H         1 <0>         0.1201
     55 H22        -1.0488   -4.5932    0.8403 H         1 <0>         0.1233
     56 H23        -4.0474   -7.9634    3.6424 H         1 <0>         0.0553
     57 H24        -3.5127   -9.5323    4.2913 H         1 <0>         0.0537
     58 H25        -3.1269   -8.0299    5.1644 H         1 <0>         0.0576
     59 H26        -1.1884   -8.9047    1.4520 H         1 <0>         0.0580
     60 H27        -2.3807  -10.0431    2.1233 H         1 <0>         0.0534
     61 H28        -2.9154   -8.4743    1.4744 H         1 <0>         0.0579
     62 H29        -0.7028   -8.6341    5.1328 H         1 <0>         0.0577
     63 H30        -1.0886  -10.1365    4.2597 H         1 <0>         0.0537
     64 H31         0.1037   -8.9980    3.5884 H         1 <0>         0.0556
@<TRIPOS>BOND
     1    1    2 1
     2    1   34 1
     3    1   35 1
     4    1   36 1
     5    2    7 ar
     6    2    3 ar
     7    3    4 ar
     8    3   37 1
     9    4    5 ar
    10    4   38 1
    11    5    6 ar
    12    5   33 1
    13    6    7 ar
    14    6   39 1
    15    7    8 1
    16    8   51 1
    17    8    9 1
    18    9   10 1
    19    9   20 2
    20   10   11 1
    21   11   12 1
    22   11   40 1
    23   11   41 1
    24   12   16 2
    25   12   13 1
    26   13   14 2
    27   13   19 1
    28   14   15 1
    29   15   16 1
    30   15   18 1
    31   16   17 1
    32   17   42 1
    33   17   43 1
    34   17   44 1
    35   18   45 1
    36   18   46 1
    37   18   47 1
    38   19   48 1
    39   19   49 1
    40   19   50 1
    41   20   21 1
    42   21   22 2
    43   21   23 1
    44   23   28 ar
    45   23   24 ar
    46   24   25 ar
    47   24   52 1
    48   25   26 ar
    49   25   53 1
    50   26   27 ar
    51   26   29 1
    52   27   28 ar
    53   27   54 1
    54   28   55 1
    55   29   30 1
    56   29   31 1
    57   29   32 1
    58   30   56 1
    59   30   57 1
    60   30   58 1
    61   31   59 1
    62   31   60 1
    63   31   61 1
    64   32   62 1
    65   32   63 1
    66   32   64 1
