@<TRIPOS>MOLECULE
ZINC09447217
   56    59     0     0     0
SMALL
USER_CHARGES
N-(7-chloro-4-methoxy-benzothiazol-2-yl)-4-[(3,5-dimethyl-1-piperidyl)sulfonyl]benzamide
@<TRIPOS>ATOM
      1 C1        -10.4885    3.0351    3.3113 C.3       1 <0>        -0.1558
      2 C2        -11.9245    3.4293    3.6625 C.3       1 <0>        -0.1073
      3 H1        -12.3876    2.6339    4.2464 H         1 <0>         0.0854
      4 C3        -11.9137    4.7231    4.4799 C.3       1 <0>        -0.1079
      5 C4        -11.2334    5.8320    3.6740 C.3       1 <0>        -0.1100
      6 H2        -10.2168    5.5286    3.4237 H         1 <0>         0.0784
      7 C5        -12.0246    6.0805    2.3860 C.3       1 <0>         0.1229
      8 N1        -12.1642    4.8086    1.6639 N.pl3     1 <0>        -0.9917
      9 C6        -12.7288    3.6521    2.3727 C.3       1 <0>         0.1221
     10 S1        -11.7003    4.6827    0.0792 S.o2      1 <0>         2.6854
     11 O1        -11.7490    5.9950   -0.4637 O.2       1 <0>        -0.9475
     12 O2        -12.4370    3.6013   -0.4750 O.2       1 <0>        -0.9465
     13 C7        -10.0069    4.1960    0.0691 C.ar      1 <0>        -0.6489
     14 C8         -9.6765    2.8524    0.0597 C.ar      1 <0>        -0.0217
     15 C9         -8.3527    2.4645    0.0513 C.ar      1 <0>        -0.0690
     16 C10        -7.3454    3.4311    0.0528 C.ar      1 <0>        -0.0801
     17 C11        -7.6857    4.7849    0.0680 C.ar      1 <0>        -0.1028
     18 C12        -9.0135    5.1591    0.0710 C.ar      1 <0>        -0.0234
     19 C13        -5.9250    3.0228    0.0443 C.2       1 <0>         0.5621
     20 O3         -5.6317    1.8433    0.0361 O.2       1 <0>        -0.4795
     21 N2         -4.9549    3.9585    0.0457 N.am      1 <0>        -0.6040
     22 C14        -3.6237    3.5759    0.0378 C.2       1 <0>         0.3411
     23 N3         -2.5501    4.3306    0.0494 N.2       1 <0>        -0.5165
     24 C15        -1.3007    3.8158    0.0351 C.ar      1 <0>         0.0864
     25 C16        -0.0662    4.5142    0.0270 C.ar      1 <0>         0.1911
     26 C17         1.1260    3.8302    0.0119 C.ar      1 <0>        -0.2002
     27 C18         1.1648    2.4431    0.0041 C.ar      1 <0>        -0.0438
     28 C19        -0.0215    1.7317    0.0116 C.ar      1 <0>        -0.0195
     29 C20        -1.2193    2.4065    0.0209 C.ar      1 <0>        -0.1481
     30 S2         -2.9306    1.9285    0.0257 S.3       1 <0>         0.1465
     31 Cl1         0.0021   -0.0041    0.0020 Cl        1 <0>        -0.0517
     32 O4         -0.0620    5.8738    0.0339 O.3       1 <0>        -0.2957
     33 C21         1.2131    6.5187    0.0247 C.3       1 <0>         0.0194
     34 C22       -11.1937    7.1162    4.5047 C.3       1 <0>        -0.1488
     35 H3         -9.9196    2.8806    4.2282 H         1 <0>         0.0587
     36 H4        -10.4967    2.1136    2.7292 H         1 <0>         0.0553
     37 H5        -10.0261    3.8303    2.7265 H         1 <0>         0.0584
     38 H6        -11.3665    4.5613    5.4087 H         1 <0>         0.0666
     39 H7        -12.9382    5.0166    4.7085 H         1 <0>         0.0670
     40 H8        -11.4915    6.7981    1.7623 H         1 <0>         0.0907
     41 H9        -13.0120    6.4719    2.6309 H         1 <0>         0.0797
     42 H10       -13.7723    3.8482    2.6189 H         1 <0>         0.0802
     43 H11       -12.6604    2.7669    1.7404 H         1 <0>         0.0922
     44 H12       -10.4568    2.1057    0.0586 H         1 <0>         0.1516
     45 H13        -8.0962    1.4155    0.0433 H         1 <0>         0.1524
     46 H14        -6.9112    5.5376    0.0734 H         1 <0>         0.1393
     47 H15        -9.2782    6.2062    0.0787 H         1 <0>         0.1507
     48 H16        -5.1890    4.8998    0.0523 H         1 <0>         0.4287
     49 H17         2.0529    4.3845    0.0057 H         1 <0>         0.1504
     50 H18         2.1118    1.9241   -0.0082 H         1 <0>         0.1527
     51 H19         1.7779    6.2197    0.9077 H         1 <0>         0.0611
     52 H20         1.7605    6.2287   -0.8721 H         1 <0>         0.0612
     53 H21         1.0736    7.5997    0.0316 H         1 <0>         0.1061
     54 H22       -12.2106    7.4181    4.7558 H         1 <0>         0.0587
     55 H23       -10.6307    6.9390    5.4210 H         1 <0>         0.0594
     56 H24       -10.7117    7.9065    3.9292 H         1 <0>         0.0583
@<TRIPOS>BOND
     1    1    2 1
     2    1   35 1
     3    1   36 1
     4    1   37 1
     5    2    3 1
     6    2    9 1
     7    2    4 1
     8    4    5 1
     9    4   38 1
    10    4   39 1
    11    5    6 1
    12    5    7 1
    13    5   34 1
    14    7    8 1
    15    7   40 1
    16    7   41 1
    17    8    9 1
    18    8   10 1
    19    9   42 1
    20    9   43 1
    21   10   11 2
    22   10   12 2
    23   10   13 1
    24   13   18 ar
    25   13   14 ar
    26   14   15 ar
    27   14   44 1
    28   15   16 ar
    29   15   45 1
    30   16   17 ar
    31   16   19 1
    32   17   18 ar
    33   17   46 1
    34   18   47 1
    35   19   20 2
    36   19   21 am
    37   21   22 1
    38   21   48 1
    39   22   30 1
    40   22   23 2
    41   23   24 1
    42   24   29 ar
    43   24   25 ar
    44   25   26 ar
    45   25   32 1
    46   26   27 ar
    47   26   49 1
    48   27   28 ar
    49   27   50 1
    50   28   29 ar
    51   28   31 1
    52   29   30 1
    53   32   33 1
    54   33   51 1
    55   33   52 1
    56   33   53 1
    57   34   54 1
    58   34   55 1
    59   34   56 1
