@<TRIPOS>MOLECULE
ZINC01868689
   61    66     0     0     0
SMALL
USER_CHARGES

@<TRIPOS>ATOM
      1 C1          6.0535    1.8915    5.1184 C.ar      1 <0>        -0.1011
      2 C2          7.0023    0.9637    4.7262 C.ar      1 <0>        -0.1144
      3 C3          6.8397    0.2610    3.5505 C.ar      1 <0>        -0.0918
      4 C4          5.7139    0.4874    2.7555 C.ar      1 <0>        -0.0696
      5 C5          4.7601    1.4250    3.1577 C.ar      1 <0>        -0.0841
      6 C6          4.9357    2.1209    4.3355 C.ar      1 <0>        -0.1144
      7 C7          5.5331   -0.2611    1.4945 C.2       1 <0>         0.0970
      8 C8          6.4275   -0.0368    0.3495 C.ar      1 <0>        -0.1110
      9 C9          7.4696    0.8924    0.4327 C.ar      1 <0>        -0.0379
     10 C10         8.2973    1.0885   -0.6501 C.ar      1 <0>        -0.0665
     11 C11         8.1011    0.3688   -1.8221 C.ar      1 <0>        -0.0477
     12 C12         7.0788   -0.5493   -1.9190 C.ar      1 <0>        -0.1498
     13 C13         6.2301   -0.7647   -0.8365 C.ar      1 <0>         0.1986
     14 N1          5.2052   -1.6851   -0.9308 N.am      1 <0>        -0.6275
     15 C14         4.3674   -1.9174    0.0937 C.2       1 <0>         0.5480
     16 C15         4.5138   -1.2024    1.3617 C.2       1 <0>        -0.1379
     17 C16         3.5915   -1.4700    2.4826 C.2       1 <0>         0.2387
     18 C17         3.9618   -1.9957    3.6515 C.2       1 <0>        -0.2821
     19 C18         2.7220   -2.1023    4.5109 C.3       1 <0>         0.2228
     20 H1          2.5281   -3.1431    4.7701 H         1 <0>         0.1116
     21 N2          1.6361   -1.5725    3.6702 N.am      1 <0>        -0.4083
     22 N3          2.2296   -1.2011    2.4563 N.pl3     1 <0>        -0.5301
     23 C19         0.3346   -1.4621    4.0027 C.2       1 <0>         0.5738
     24 O1         -0.4505   -0.9554    3.2251 O.2       1 <0>        -0.5019
     25 C20        -0.1379   -1.9568    5.3125 C.ar      1 <0>        -0.1209
     26 C21         0.7269   -2.6671    6.1475 C.ar      1 <0>        -0.1089
     27 C22         0.2797   -3.1261    7.3685 C.ar      1 <0>        -0.1243
     28 C23        -1.0235   -2.8845    7.7680 C.ar      1 <0>        -0.0729
     29 C24        -1.8862   -2.1819    6.9471 C.ar      1 <0>        -0.1199
     30 C25        -1.4502   -1.7111    5.7236 C.ar      1 <0>         0.0195
     31 Cl1        -2.5319   -0.8224    4.6971 Cl        1 <0>        -0.0277
     32 C26         2.8755   -1.2717    5.7589 C.ar      1 <0>        -0.0907
     33 C27         2.5202    0.0644    5.7481 C.ar      1 <0>        -0.0448
     34 C28         2.6610    0.8262    6.8927 C.ar      1 <0>        -0.1077
     35 C29         3.1567    0.2521    8.0486 C.ar      1 <0>        -0.0520
     36 C30         3.5110   -1.0838    8.0597 C.ar      1 <0>        -0.0391
     37 C31         3.3661   -1.8469    6.9159 C.ar      1 <0>        -0.0482
     38 N4          4.0422   -1.6984    9.2971 N.pl3     1 <0>         0.0340
     39 O2          4.1662   -1.0318   10.2980 O.2       1 <0>        -0.1567
     40 O3          4.3521   -2.8670    9.3067 O.3       1 <0>        -0.1556
     41 O4          3.4762   -2.7385   -0.0335 O.2       1 <0>        -0.5102
     42 Cl2         9.5918    2.2409   -0.5505 Cl        1 <0>        -0.0540
     43 H2          6.1838    2.4359    6.0420 H         1 <0>         0.1240
     44 H3          7.8724    0.7896    5.3419 H         1 <0>         0.1278
     45 H4          7.5813   -0.4623    3.2452 H         1 <0>         0.1272
     46 H5          3.8874    1.6052    2.5475 H         1 <0>         0.1207
     47 H6          4.1989    2.8462    4.6478 H         1 <0>         0.1246
     48 H7          7.6242    1.4539    1.3422 H         1 <0>         0.1487
     49 H8          8.7561    0.5310   -2.6653 H         1 <0>         0.1476
     50 H9          6.9354   -1.1025   -2.8355 H         1 <0>         0.1484
     51 H10         4.9620   -2.2911    3.9320 H         1 <0>         0.1626
     52 H11         1.7558   -0.8137    1.7038 H         1 <0>         0.4377
     53 H12         1.7439   -2.8570    5.8375 H         1 <0>         0.1626
     54 H13         0.9478   -3.6759    8.0147 H         1 <0>         0.1358
     55 H14        -1.3680   -3.2468    8.7252 H         1 <0>         0.1398
     56 H15        -2.9018   -1.9972    7.2648 H         1 <0>         0.1437
     57 H16         2.1330    0.5129    4.8452 H         1 <0>         0.1355
     58 H17         2.3842    1.8701    6.8841 H         1 <0>         0.1468
     59 H18         3.2674    0.8475    8.9428 H         1 <0>         0.1537
     60 H19         3.6395   -2.8917    6.9256 H         1 <0>         0.1563
     61 H20         5.0868   -2.1768   -1.7585 H         1 <0>         0.4222
@<TRIPOS>BOND
     1    1    6 ar
     2    1    2 ar
     3    1   43 1
     4    2    3 ar
     5    2   44 1
     6    3    4 ar
     7    3   45 1
     8    4    5 ar
     9    4    7 1
    10    5    6 ar
    11    5   46 1
    12    6   47 1
    13    7   16 2
    14    7    8 1
    15    8   13 ar
    16    8    9 ar
    17    9   10 ar
    18    9   48 1
    19   10   11 ar
    20   10   42 1
    21   11   12 ar
    22   11   49 1
    23   12   13 ar
    24   12   50 1
    25   13   14 1
    26   14   15 am
    27   14   61 1
    28   15   16 1
    29   15   41 2
    30   16   17 1
    31   17   22 1
    32   17   18 2
    33   18   19 1
    34   18   51 1
    35   19   20 1
    36   19   21 1
    37   19   32 1
    38   21   22 1
    39   21   23 am
    40   22   52 1
    41   23   24 2
    42   23   25 1
    43   25   30 ar
    44   25   26 ar
    45   26   27 ar
    46   26   53 1
    47   27   28 ar
    48   27   54 1
    49   28   29 ar
    50   28   55 1
    51   29   30 ar
    52   29   56 1
    53   30   31 1
    54   32   37 ar
    55   32   33 ar
    56   33   34 ar
    57   33   57 1
    58   34   35 ar
    59   34   58 1
    60   35   36 ar
    61   35   59 1
    62   36   37 ar
    63   36   38 1
    64   37   60 1
    65   38   39 2
    66   38   40 1
