@<TRIPOS>MOLECULE
ZINC04203123
   29    30     0     0     0
SMALL
USER_CHARGES
5-(4-chlorophenyl)pyrrolidine-2,4-dicarboxylic acid
@<TRIPOS>ATOM
      1 C1         -4.5314   -0.4290   -1.0161 C.ar      1 <0>        -0.0739
      2 C2         -5.5052   -1.3505   -1.3522 C.ar      1 <0>        -0.1005
      3 C3         -6.8359   -1.0769   -1.0903 C.ar      1 <0>        -0.0173
      4 C4         -7.1904    0.1166   -0.4869 C.ar      1 <0>        -0.1097
      5 C5         -6.2152    1.0348   -0.1462 C.ar      1 <0>        -0.0568
      6 C6         -4.8858    0.7611   -0.4085 C.ar      1 <0>        -0.1094
      7 C7         -3.8230    1.7631   -0.0376 C.3       1 <0>         0.0942
      8 H1         -4.2114    2.4574    0.7075 H         1 <0>         0.1363
      9 C8         -3.3664    2.5369   -1.2882 C.3       1 <0>        -0.1515
     10 H2         -3.5446    3.6044   -1.1586 H         1 <0>         0.1040
     11 C9         -1.8506    2.2564   -1.4055 C.3       1 <0>        -0.1113
     12 C10        -1.4611    1.8483    0.0375 C.3       1 <0>        -0.0189
     13 H3         -1.3182    2.7289    0.6638 H         1 <0>         0.1361
     14 C11        -0.2192    0.9946    0.0319 C.2       1 <0>         0.4682
     15 O1         -0.3140   -0.2099    0.0421 O.co2     1 <0>        -0.6180
     16 C12        -4.0901    2.0311   -2.5095 C.2       1 <0>         0.4728
     17 O2         -3.5973    1.1597   -3.1860 O.co2     1 <0>        -0.6157
     18 Cl1        -8.0603   -2.2304   -1.5191 Cl        1 <0>        -0.0738
     19 H4         -3.4930   -0.6405   -1.2246 H         1 <0>         0.1344
     20 H5         -5.2279   -2.2820   -1.8231 H         1 <0>         0.1369
     21 H6         -8.2290    0.3309   -0.2826 H         1 <0>         0.1352
     22 H7         -6.4918    1.9665    0.3248 H         1 <0>         0.1343
     23 H8         -1.3144    3.1552   -1.7102 H         1 <0>         0.1020
     24 H9         -1.6623    1.4391   -2.1017 H         1 <0>         0.1083
     25 N1         -2.6352    1.0840    0.4830 N.4       1 <0>        -0.4959
     26 H10        -2.5899    0.1259    0.1166 H         1 <0>         0.4301
     27 H11        -2.6678    1.0570    1.5089 H         1 <0>         0.4190
     28 O3          0.9922    1.5723    0.0100 O.co2     1 <0>        -0.7131
     29 O4         -5.2820    2.5488   -2.8457 O.co2     1 <0>        -0.7460
@<TRIPOS>BOND
     1    1    6 ar
     2    1    2 ar
     3    1   19 1
     4    2    3 ar
     5    2   20 1
     6    3    4 ar
     7    3   18 1
     8    4    5 ar
     9    4   21 1
    10    5    6 ar
    11    5   22 1
    12    6    7 1
    13    7    8 1
    14    7    9 1
    15    7   25 1
    16    9   10 1
    17    9   11 1
    18    9   16 1
    19   11   12 1
    20   11   23 1
    21   11   24 1
    22   12   13 1
    23   12   14 1
    24   12   25 1
    25   14   15 2
    26   14   28 1
    27   16   17 2
    28   16   29 1
    29   25   26 1
    30   25   27 1
