@<TRIPOS>MOLECULE
ZINC34677603
   71    74     0     0     0
SMALL
USER_CHARGES

@<TRIPOS>ATOM
      1 C1         -0.6519   -0.3465   -1.4613 C.3       1 <0>         0.0255
      2 O1         -0.4229   -1.7545   -1.3756 O.3       1 <0>        -0.3172
      3 C2         -1.5135   -2.5623   -1.4467 C.ar      1 <0>         0.1324
      4 C3         -2.7775   -2.0114   -1.6017 C.ar      1 <0>        -0.2056
      5 C4         -3.8842   -2.8347   -1.6741 C.ar      1 <0>        -0.0754
      6 C5         -3.7332   -4.2068   -1.5924 C.ar      1 <0>        -0.1530
      7 C6         -2.4750   -4.7582   -1.4375 C.ar      1 <0>        -0.0748
      8 C7         -1.3642   -3.9393   -1.3703 C.ar      1 <0>        -0.1230
      9 C8          0.0078   -4.5412   -1.2077 C.3       1 <0>        -0.0776
     10 C9          0.3815   -4.5658    0.2757 C.3       1 <0>         0.1230
     11 N1          1.7152   -5.1509    0.4337 N.am      1 <0>        -0.7069
     12 C10         2.2554   -5.2752    1.6622 C.2       1 <0>         0.5943
     13 O2          1.6356   -4.9015    2.6396 O.2       1 <0>        -0.5182
     14 C11         3.5975   -5.8640    1.8212 C.2       1 <0>        -0.0640
     15 C12         4.2623   -6.0564    2.9930 C.2       1 <0>         0.0675
     16 O3          5.4433   -6.6161    2.6856 O.3       1 <0>        -0.1830
     17 C13         5.5032   -6.7645    1.3547 C.2       1 <0>         0.1110
     18 N2          4.4022   -6.3228    0.8246 N.2       1 <0>        -0.4066
     19 C14         6.6624   -7.3549    0.5939 C.3       1 <0>         0.1103
     20 N3          7.6051   -6.2878    0.2323 N.4       1 <0>        -0.3897
     21 C15         8.1897   -5.7170    1.4529 C.3       1 <0>        -0.0059
     22 C16         9.1576   -4.5928    1.0776 C.3       1 <0>         0.0250
     23 N4         10.2166   -5.1306    0.2119 N.3       1 <0>        -0.5270
     24 C17         9.6444   -5.7279   -1.0030 C.3       1 <0>         0.0269
     25 C18         8.6724   -6.8428   -0.6106 C.3       1 <0>        -0.0011
     26 C19        11.1995   -4.0921   -0.1248 C.3       1 <0>         0.0236
     27 C20        12.1093   -3.8414    1.0795 C.3       1 <0>         0.1177
     28 H1         11.5036   -3.5544    1.9390 H         1 <0>         0.1091
     29 C21        13.0929   -2.7167    0.7502 C.3       1 <0>         0.0235
     30 O4         13.8642   -2.4032    1.9116 O.3       1 <0>        -0.2996
     31 C22        14.7920   -1.4175    1.7887 C.ar      1 <0>         0.1288
     32 C23        14.9523   -0.7619    0.5767 C.ar      1 <0>        -0.1988
     33 C24        15.8957    0.2397    0.4537 C.ar      1 <0>        -0.0692
     34 C25        16.6809    0.5887    1.5383 C.ar      1 <0>        -0.0697
     35 C26        16.5228   -0.0644    2.7478 C.ar      1 <0>        -0.0676
     36 C27        15.5758   -1.0619    2.8766 C.ar      1 <0>        -0.1353
     37 Cl1        17.8662    1.8473    1.3811 Cl        1 <0>        -0.0616
     38 O5         12.8346   -5.0342    1.3849 O.3       1 <0>        -0.5355
     39 H2          0.2993    0.1812   -1.3914 H         1 <0>         0.1004
     40 H3         -1.1277   -0.1131   -2.4138 H         1 <0>         0.0577
     41 H4         -1.3019   -0.0337   -0.6441 H         1 <0>         0.0579
     42 H5         -2.8959   -0.9398   -1.6652 H         1 <0>         0.1303
     43 H6         -4.8683   -2.4063   -1.7944 H         1 <0>         0.1280
     44 H7         -4.5998   -4.8489   -1.6493 H         1 <0>         0.1275
     45 H8         -2.3597   -5.8301   -1.3736 H         1 <0>         0.1300
     46 H9          0.0069   -5.5585   -1.5991 H         1 <0>         0.0788
     47 H10         0.7348   -3.9418   -1.7557 H         1 <0>         0.0823
     48 H11         0.3824   -3.5485    0.6671 H         1 <0>         0.0780
     49 H12        -0.3455   -5.1652    0.8237 H         1 <0>         0.0758
     50 H13         2.2095   -5.4490   -0.3458 H         1 <0>         0.4073
     51 H14         3.9076   -5.8062    3.9819 H         1 <0>         0.2483
     52 H15         7.1690   -8.0913    1.2176 H         1 <0>         0.1625
     53 H16         6.2947   -7.8371   -0.3119 H         1 <0>         0.1728
     54 H17         7.3955   -5.3173    2.0835 H         1 <0>         0.1299
     55 H18         8.7281   -6.4940    1.9956 H         1 <0>         0.1471
     56 H19         8.6168   -3.8093    0.5468 H         1 <0>         0.0625
     57 H20         9.6028   -4.1790    1.9825 H         1 <0>         0.1267
     58 H21         9.1116   -4.9631   -1.5681 H         1 <0>         0.0629
     59 H22        10.4447   -6.1423   -1.6162 H         1 <0>         0.1285
     60 H23         9.2084   -7.6140   -0.0573 H         1 <0>         0.1456
     61 H24         8.2361   -7.2776   -1.5099 H         1 <0>         0.1431
     62 H25        11.8007   -4.4218   -0.9720 H         1 <0>         0.0964
     63 H26        10.6793   -3.1703   -0.3852 H         1 <0>         0.0633
     64 H27        13.7577   -3.0385   -0.0515 H         1 <0>         0.0707
     65 H28        12.5406   -1.8328    0.4314 H         1 <0>         0.0724
     66 H29        14.3401   -1.0345   -0.2702 H         1 <0>         0.1334
     67 H30        16.0208    0.7503   -0.4896 H         1 <0>         0.1379
     68 H31        17.1368    0.2092    3.5932 H         1 <0>         0.1441
     69 H32        15.4494   -1.5682    3.8222 H         1 <0>         0.1424
     70 H33        13.3964   -5.3486    0.6634 H         1 <0>         0.3771
     71 H34         7.1167   -5.5657   -0.2758 H         1 <0>         0.4262
@<TRIPOS>BOND
     1    1    2 1
     2    1   39 1
     3    1   40 1
     4    1   41 1
     5    2    3 1
     6    3    8 ar
     7    3    4 ar
     8    4    5 ar
     9    4   42 1
    10    5    6 ar
    11    5   43 1
    12    6    7 ar
    13    6   44 1
    14    7    8 ar
    15    7   45 1
    16    8    9 1
    17    9   10 1
    18    9   46 1
    19    9   47 1
    20   10   11 1
    21   10   48 1
    22   10   49 1
    23   11   12 am
    24   11   50 1
    25   12   13 2
    26   12   14 1
    27   14   18 1
    28   14   15 2
    29   15   16 1
    30   15   51 1
    31   16   17 1
    32   17   18 2
    33   17   19 1
    34   19   20 1
    35   19   52 1
    36   19   53 1
    37   20   25 1
    38   20   21 1
    39   20   71 1
    40   21   22 1
    41   21   54 1
    42   21   55 1
    43   22   23 1
    44   22   56 1
    45   22   57 1
    46   23   24 1
    47   23   26 1
    48   24   25 1
    49   24   58 1
    50   24   59 1
    51   25   60 1
    52   25   61 1
    53   26   27 1
    54   26   62 1
    55   26   63 1
    56   27   28 1
    57   27   29 1
    58   27   38 1
    59   29   30 1
    60   29   64 1
    61   29   65 1
    62   30   31 1
    63   31   36 ar
    64   31   32 ar
    65   32   33 ar
    66   32   66 1
    67   33   34 ar
    68   33   67 1
    69   34   35 ar
    70   34   37 1
    71   35   36 ar
    72   35   68 1
    73   36   69 1
    74   38   70 1
