@<TRIPOS>MOLECULE
ZINC36065026
   68    71     0     0     0
SMALL
USER_CHARGES

@<TRIPOS>ATOM
      1 C1          4.2335   -2.1664    0.6736 C.3       1 <0>        -0.1526
      2 C2          3.5062   -3.4892    0.9228 C.3       1 <0>         0.0598
      3 O1          3.5058   -3.7762    2.3227 O.3       1 <0>        -0.3480
      4 C3          2.9027   -4.9104    2.7121 C.2       1 <0>         0.4720
      5 O2          2.3922   -5.6356    1.8916 O.2       1 <0>        -0.5111
      6 C4          2.8625   -5.2793    4.1727 C.3       1 <0>        -0.0983
      7 H1          3.8799   -5.3791    4.5509 H         1 <0>         0.1113
      8 C5          2.1213   -6.6072    4.3439 C.3       1 <0>        -0.0973
      9 C6          2.1084   -6.9992    5.8232 C.3       1 <0>        -0.1330
     10 C7          1.3674   -5.9249    6.6255 C.3       1 <0>         0.1296
     11 N1          1.9853   -4.6202    6.3523 N.pl3     1 <0>        -0.6375
     12 C8          2.1307   -4.1851    4.9564 C.3       1 <0>         0.1498
     13 C9          2.4227   -3.8154    7.3908 C.2       1 <0>         0.5043
     14 O3          2.7913   -4.3718    8.5703 O.3       1 <0>        -0.6976
     15 C10         2.4817   -2.4796    7.2286 C.2       1 <0>        -0.4570
     16 C11         3.0894   -1.6390    8.2702 C.2       1 <0>         0.2287
     17 C12         3.7299   -2.1871    9.3262 C.2       1 <0>        -0.2984
     18 S1          4.2468   -0.7435   10.2336 S.3       1 <0>         0.1440
     19 C13         3.6196    0.4366    9.2183 C.2       1 <0>         0.3321
     20 N2          3.6408    1.7516    9.2915 N.2       1 <0>        -0.5925
     21 C14         3.0960    2.5660    8.4026 C.2       1 <0>         0.3067
     22 C15         2.4434    2.0584    7.2955 C.2       1 <0>        -0.3965
     23 C16         2.3782    0.5551    7.1431 C.3       1 <0>         0.2664
     24 H2          2.8391    0.2940    6.1905 H         1 <0>         0.0768
     25 N3          3.0308   -0.2613    8.2011 N.pl3     1 <0>        -0.5143
     26 C17         0.9259    0.1583    7.0751 C.ar      1 <0>        -0.1074
     27 C18         0.3695   -0.2239    5.8689 C.ar      1 <0>        -0.0498
     28 C19        -0.9625   -0.5879    5.8062 C.ar      1 <0>        -0.1357
     29 C20        -1.7397   -0.5702    6.9496 C.ar      1 <0>        -0.0927
     30 C21        -1.1855   -0.1889    8.1565 C.ar      1 <0>        -0.1620
     31 C22         0.1501    0.1710    8.2216 C.ar      1 <0>         0.1213
     32 F1          0.6943    0.5395    9.4020 F         1 <0>        -0.1373
     33 C23         1.8615    2.9075    6.3464 C.2       1 <0>         0.5371
     34 O4          1.8307    4.1101    6.5422 O.2       1 <0>        -0.5495
     35 O5          1.3340    2.3937    5.2132 O.3       1 <0>        -0.3499
     36 C24         0.7567    3.3181    4.2891 C.3       1 <0>         0.0825
     37 C25         1.8269    3.7879    3.3017 C.3       1 <0>        -0.1673
     38 C26        -0.3776    2.6333    3.5240 C.3       1 <0>        -0.1466
     39 C27         3.1872    4.0573    8.5990 C.3       1 <0>        -0.0923
     40 H3          5.2610   -2.2442    1.0289 H         1 <0>         0.0665
     41 H4          4.2339   -1.9476   -0.3942 H         1 <0>         0.0766
     42 H5          3.7237   -1.3651    1.2085 H         1 <0>         0.0687
     43 H6          2.4787   -3.4115    0.5675 H         1 <0>         0.0657
     44 H7          4.0160   -4.2905    0.3879 H         1 <0>         0.0642
     45 H8          1.0967   -6.4998    3.9878 H         1 <0>         0.0685
     46 H9          2.6265   -7.3821    3.7674 H         1 <0>         0.0664
     47 H10         1.6008   -7.9565    5.9416 H         1 <0>         0.0696
     48 H11         3.1327   -7.0826    6.1864 H         1 <0>         0.0679
     49 H12         0.3196   -5.9029    6.3260 H         1 <0>         0.0434
     50 H13         1.4407   -6.1482    7.6899 H         1 <0>         0.0875
     51 H14         2.7077   -3.2611    4.9194 H         1 <0>         0.0919
     52 H15         1.1451   -4.0207    4.5209 H         1 <0>         0.0495
     53 H16         2.0825   -2.0262    6.3334 H         1 <0>         0.0917
     54 H17         3.8876   -3.2297    9.5597 H         1 <0>         0.2315
     55 H18         0.9755   -0.2378    4.9751 H         1 <0>         0.1266
     56 H19        -1.3965   -0.8861    4.8633 H         1 <0>         0.1221
     57 H20        -2.7805   -0.8541    6.8993 H         1 <0>         0.1242
     58 H21        -1.7929   -0.1748    9.0495 H         1 <0>         0.1267
     59 H22         0.3619    4.1766    4.8326 H         1 <0>         0.0767
     60 H23         2.2217    2.9294    2.7582 H         1 <0>         0.0610
     61 H24         1.3866    4.4930    2.5968 H         1 <0>         0.0651
     62 H25         2.6350    4.2757    3.8468 H         1 <0>         0.0595
     63 H26        -1.1401    2.2987    4.2274 H         1 <0>         0.0623
     64 H27        -0.8180    3.3385    2.8191 H         1 <0>         0.0689
     65 H28         0.0171    1.7749    2.9805 H         1 <0>         0.0636
     66 H29         3.7324    4.2700    9.5186 H         1 <0>         0.0641
     67 H30         3.7117    4.5037    7.7542 H         1 <0>         0.0832
     68 H31         2.1835    4.4770    8.6664 H         1 <0>         0.0887
@<TRIPOS>BOND
     1    1    2 1
     2    1   40 1
     3    1   41 1
     4    1   42 1
     5    2    3 1
     6    2   43 1
     7    2   44 1
     8    3    4 1
     9    4    5 2
    10    4    6 1
    11    6    7 1
    12    6   12 1
    13    6    8 1
    14    8    9 1
    15    8   45 1
    16    8   46 1
    17    9   10 1
    18    9   47 1
    19    9   48 1
    20   10   11 1
    21   10   49 1
    22   10   50 1
    23   11   12 1
    24   11   13 1
    25   12   51 1
    26   12   52 1
    27   13   14 1
    28   13   15 2
    29   15   16 1
    30   15   53 1
    31   16   25 1
    32   16   17 2
    33   17   18 1
    34   17   54 1
    35   18   19 1
    36   19   25 1
    37   19   20 2
    38   20   21 1
    39   21   22 2
    40   21   39 1
    41   22   23 1
    42   22   33 1
    43   23   24 1
    44   23   25 1
    45   23   26 1
    46   26   31 ar
    47   26   27 ar
    48   27   28 ar
    49   27   55 1
    50   28   29 ar
    51   28   56 1
    52   29   30 ar
    53   29   57 1
    54   30   31 ar
    55   30   58 1
    56   31   32 1
    57   33   34 2
    58   33   35 1
    59   35   36 1
    60   36   37 1
    61   36   38 1
    62   36   59 1
    63   37   60 1
    64   37   61 1
    65   37   62 1
    66   38   63 1
    67   38   64 1
    68   38   65 1
    69   39   66 1
    70   39   67 1
    71   39   68 1
