@<TRIPOS>MOLECULE
ZINC39228653
   56    61     0     0     0
SMALL
USER_CHARGES

@<TRIPOS>ATOM
      1 C1         -0.0433    1.4939   -0.0122 C.3       1 <0>        -0.1020
      2 C2         -0.0190   -0.0129   -0.0168 C.2       1 <0>        -0.0570
      3 C3         -0.0129   -0.7247   -1.1599 C.2       1 <0>        -0.2530
      4 S1          0.0177   -2.4107   -0.5916 S.3       1 <0>         0.3120
      5 C4          0.0218   -2.1633    1.0678 C.2       1 <0>         0.0613
      6 C5          0.0054   -0.7838    1.2046 C.2       1 <0>        -0.1493
      7 C6          0.0073   -0.1551    2.4913 C.1       1 <0>         0.2716
      8 N1          0.0088    0.3436    3.5119 N.1       1 <0>        -0.4279
      9 N2          0.0419   -3.1202    2.0730 N.am      1 <0>        -0.6228
     10 C7          0.0617   -4.4300    1.7562 C.2       1 <0>         0.5110
     11 O1          0.0619   -4.7726    0.5928 O.2       1 <0>        -0.4675
     12 C8          0.0834   -5.4690    2.8476 C.3       1 <0>         0.0406
     13 N3          0.1024   -6.8095    2.2473 N.3       1 <0>        -0.4936
     14 C9         -1.1452   -7.0778    1.5183 C.3       1 <0>         0.0427
     15 C10        -0.9478   -8.2889    0.5963 C.3       1 <0>        -0.0375
     16 C11        -0.3211   -9.3948    1.4077 C.2       1 <0>        -0.1383
     17 C12        -0.2181  -10.8055    1.1084 C.ar      1 <0>        -0.1020
     18 C13        -0.6408  -11.5809    0.0246 C.ar      1 <0>        -0.0627
     19 C14        -0.3669  -12.9255    0.0781 C.ar      1 <0>        -0.1498
     20 C15         0.2966  -13.4993    1.1498 C.ar      1 <0>        -0.0961
     21 C16         0.7261  -12.7561    2.2361 C.ar      1 <0>        -0.1325
     22 C17         0.4622  -11.3888    2.2095 C.ar      1 <0>         0.1058
     23 N4          0.7388  -10.3862    3.0949 N.pl3     1 <0>        -0.5780
     24 C18         0.2677   -9.1968    2.6091 C.2       1 <0>         0.0625
     25 H1          1.2000  -10.5000    3.9406 H         1 <0>         0.4152
     26 C19         0.3623   -7.8399    3.2656 C.3       1 <0>         0.2044
     27 H2          1.3613   -7.7021    3.6793 H         1 <0>         0.1125
     28 C20        -0.6639   -7.7362    4.3643 C.ar      1 <0>        -0.0982
     29 C21        -1.7460   -8.5969    4.3825 C.ar      1 <0>        -0.0793
     30 C22        -2.6892   -8.5052    5.3899 C.ar      1 <0>        -0.0247
     31 C23        -2.5537   -7.5513    6.3831 C.ar      1 <0>        -0.0879
     32 C24        -1.4723   -6.6860    6.3700 C.ar      1 <0>         0.0502
     33 C25        -0.5196   -6.7826    5.3582 C.ar      1 <0>         0.0449
     34 O2          0.4394   -5.8343    5.5704 O.3       1 <0>        -0.3034
     35 C26        -0.1459   -4.8950    6.4915 C.3       1 <0>         0.2102
     36 O3         -1.1117   -5.6755    7.2138 O.3       1 <0>        -0.2975
     37 Cl1        -4.0458   -9.5883    5.4080 Cl        1 <0>        -0.0409
     38 H3          0.9783    1.8738   -0.0211 H         1 <0>         0.0763
     39 H4         -0.5716    1.8514   -0.8960 H         1 <0>         0.0778
     40 H5         -0.5542    1.8462    0.8839 H         1 <0>         0.0636
     41 H6         -0.0239   -0.3602   -2.1765 H         1 <0>         0.1931
     42 H7          0.0417   -2.8462    3.0035 H         1 <0>         0.4189
     43 H8          0.9741   -5.3329    3.4610 H         1 <0>         0.1246
     44 H9         -0.8056   -5.3617    3.4691 H         1 <0>         0.0709
     45 H10        -1.9436   -7.2890    2.2297 H         1 <0>         0.0427
     46 H11        -1.4118   -6.2059    0.9210 H         1 <0>         0.0969
     47 H12        -1.9119   -8.6175    0.2081 H         1 <0>         0.0793
     48 H13        -0.2904   -8.0194   -0.2303 H         1 <0>         0.0867
     49 H14        -1.1591  -11.1429   -0.8156 H         1 <0>         0.1297
     50 H15        -0.6792  -13.5557   -0.7415 H         1 <0>         0.1184
     51 H16         0.4851  -14.5626    1.1379 H         1 <0>         0.1208
     52 H17         1.2422  -13.2156    3.0661 H         1 <0>         0.1269
     53 H18        -1.8546   -9.3426    3.6087 H         1 <0>         0.1542
     54 H19        -3.2916   -7.4813    7.1686 H         1 <0>         0.1500
     55 H20         0.6125   -4.4959    7.1650 H         1 <0>         0.1402
     56 H21        -0.6432   -4.0888    5.9521 H         1 <0>         0.0863
@<TRIPOS>BOND
     1    1    2 1
     2    1   38 1
     3    1   39 1
     4    1   40 1
     5    2    6 1
     6    2    3 2
     7    3    4 1
     8    3   41 1
     9    4    5 1
    10    5    6 2
    11    5    9 1
    12    6    7 1
    13    7    8 3
    14    9   10 am
    15    9   42 1
    16   10   11 2
    17   10   12 1
    18   12   13 1
    19   12   43 1
    20   12   44 1
    21   13   26 1
    22   13   14 1
    23   14   15 1
    24   14   45 1
    25   14   46 1
    26   15   47 1
    27   15   48 1
    28   15   16 1
    29   16   17 1
    30   16   24 2
    31   17   18 ar
    32   17   22 ar
    33   18   19 ar
    34   18   49 1
    35   19   20 ar
    36   19   50 1
    37   20   21 ar
    38   20   51 1
    39   21   22 ar
    40   21   52 1
    41   22   23 1
    42   23   25 1
    43   23   24 1
    44   24   26 1
    45   26   27 1
    46   26   28 1
    47   28   33 ar
    48   28   29 ar
    49   29   30 ar
    50   29   53 1
    51   30   31 ar
    52   30   37 1
    53   31   32 ar
    54   31   54 1
    55   32   36 1
    56   32   33 ar
    57   33   34 1
    58   34   35 1
    59   35   36 1
    60   35   55 1
    61   35   56 1
