@<TRIPOS>MOLECULE
ZINC59830580
   48    50     0     0     0
SMALL
USER_CHARGES

@<TRIPOS>ATOM
      1 C1         -0.0298    1.5015    0.0096 C.3       1 <0>        -0.1555
      2 C2         -0.0176   -0.0055    0.0016 C.2       1 <0>         0.1227
      3 N1          0.0039   -0.6604    1.1224 N.2       1 <0>        -0.1764
      4 N2          0.0159    0.0337    2.3393 N.pl3     1 <0>        -0.5523
      5 C3          0.0388   -0.6638    3.5328 C.2       1 <0>         0.5604
      6 N3          0.0572   -1.9738    3.6636 N.2       1 <0>        -0.5147
      7 C4          0.0774   -2.2960    4.9614 C.2       1 <0>         0.2290
      8 N4          0.0721   -1.1947    5.6741 N.2       1 <0>        -0.3145
      9 N5          0.0523   -0.1213    4.7691 N.pl3     1 <0>        -0.5048
     10 S1          0.1063   -3.9344    5.6090 S.3       1 <0>         0.0352
     11 C5          0.1255   -3.6953    7.4070 C.3       1 <0>        -0.1061
     12 C6          0.1515   -5.0578    8.1025 C.3       1 <0>        -0.1243
     13 C7          0.1674   -4.8592    9.5963 C.2       1 <0>         0.5221
     14 O1          0.1589   -3.7381   10.0591 O.2       1 <0>        -0.5103
     15 N6          0.1912   -5.9273   10.4179 N.am      1 <0>        -0.6739
     16 C8          0.3038   -5.7439   11.8009 C.ar      1 <0>         0.1591
     17 C9          1.0273   -6.6492   12.5660 C.ar      1 <0>        -0.1385
     18 C10         1.1371   -6.4656   13.9304 C.ar      1 <0>        -0.0713
     19 C11         0.5270   -5.3809   14.5351 C.ar      1 <0>        -0.1056
     20 C12        -0.1944   -4.4774   13.7752 C.ar      1 <0>        -0.0715
     21 C13        -0.3031   -4.6533   12.4096 C.ar      1 <0>        -0.1158
     22 Br1         0.6791   -5.1332   16.4036 Br        1 <0>        -0.0492
     23 C14        -0.0302   -0.7357   -1.2785 C.ar      1 <0>        -0.0766
     24 C15        -0.0477   -0.0350   -2.4866 C.ar      1 <0>        -0.0791
     25 C16        -0.0594   -0.7244   -3.6810 C.ar      1 <0>        -0.1343
     26 C17        -0.0545   -2.1088   -3.6879 C.ar      1 <0>        -0.0864
     27 C18        -0.0373   -2.8137   -2.4989 C.ar      1 <0>        -0.1523
     28 C19        -0.0190   -2.1371   -1.2905 C.ar      1 <0>         0.1484
     29 O2          0.0041   -2.8290   -0.1218 O.3       1 <0>        -0.4706
     30 H1          0.9948    1.8731   -0.0033 H         1 <0>         0.0879
     31 H2         -0.5594    1.8652   -0.8709 H         1 <0>         0.0916
     32 H3         -0.5336    1.8560    0.9088 H         1 <0>         0.0669
     33 H4          0.0081    1.0037    2.3444 H         1 <0>         0.3977
     34 H5          1.0118   -3.1267    7.6885 H         1 <0>         0.1020
     35 H6         -0.7678   -3.1494    7.7106 H         1 <0>         0.1021
     36 H7         -0.7349   -5.6264    7.8210 H         1 <0>         0.1127
     37 H8          1.0448   -5.6037    7.7990 H         1 <0>         0.1129
     38 H9          0.1304   -6.8230   10.0508 H         1 <0>         0.4159
     39 H10         1.5034   -7.4963   12.0945 H         1 <0>         0.1365
     40 H11         1.6994   -7.1696   14.5260 H         1 <0>         0.1379
     41 H12        -0.6699   -3.6318   14.2497 H         1 <0>         0.1367
     42 H13        -0.8629   -3.9454   11.8163 H         1 <0>         0.1482
     43 H14        -0.0523    1.0450   -2.4854 H         1 <0>         0.1325
     44 H15        -0.0729   -0.1821   -4.6149 H         1 <0>         0.1303
     45 H16        -0.0645   -2.6411   -4.6276 H         1 <0>         0.1296
     46 H17        -0.0335   -3.8936   -2.5124 H         1 <0>         0.1338
     47 H18        -0.8725   -3.0365    0.2298 H         1 <0>         0.3934
     48 H19         0.0476    0.8235    4.9888 H         1 <0>         0.4384
@<TRIPOS>BOND
     1    1    2 1
     2    1   30 1
     3    1   31 1
     4    1   32 1
     5    2    3 2
     6    2   23 1
     7    3    4 1
     8    4    5 1
     9    4   33 1
    10    5    9 1
    11    5    6 2
    12    6    7 1
    13    7    8 2
    14    7   10 1
    15    8    9 1
    16    9   48 1
    17   10   11 1
    18   11   12 1
    19   11   34 1
    20   11   35 1
    21   12   13 1
    22   12   36 1
    23   12   37 1
    24   13   14 2
    25   13   15 am
    26   15   16 1
    27   15   38 1
    28   16   21 ar
    29   16   17 ar
    30   17   18 ar
    31   17   39 1
    32   18   19 ar
    33   18   40 1
    34   19   20 ar
    35   19   22 1
    36   20   21 ar
    37   20   41 1
    38   21   42 1
    39   23   28 ar
    40   23   24 ar
    41   24   25 ar
    42   24   43 1
    43   25   26 ar
    44   25   44 1
    45   26   27 ar
    46   26   45 1
    47   27   28 ar
    48   27   46 1
    49   28   29 1
    50   29   47 1
