@<TRIPOS>MOLECULE
ZINC06870996
   38    40     0     0     0
SMALL
USER_CHARGES

@<TRIPOS>ATOM
      1 C1          0.2734    0.6230   -0.6716 C.3       1 <0>        -0.1479
      2 C2          0.2683   -0.8473   -1.0949 C.3       1 <0>        -0.0874
      3 C3         -1.1472   -1.3645   -1.0971 C.ar      1 <0>        -0.0792
      4 C4         -1.6767   -1.9265    0.0512 C.ar      1 <0>        -0.1030
      5 C5         -2.9713   -2.4024    0.0563 C.ar      1 <0>        -0.0916
      6 C6         -3.7483   -2.3155   -1.1012 C.ar      1 <0>         0.0877
      7 C7         -3.2074   -1.7465   -2.2565 C.ar      1 <0>        -0.1421
      8 C8         -1.9131   -1.2700   -2.2456 C.ar      1 <0>        -0.0977
      9 N1         -5.0332   -2.7860   -1.1034 N.2       1 <0>        -0.4570
     10 C9         -5.9941   -2.0699   -1.6425 C.2       1 <0>         0.3789
     11 N2         -7.3360   -2.3689   -1.7352 N.am      1 <0>        -0.6480
     12 C10        -8.1757   -1.5280   -2.3153 C.2       1 <0>         0.5621
     13 O1         -9.3636   -1.7758   -2.4060 O.2       1 <0>        -0.4804
     14 C11        -7.6051   -0.2738   -2.8478 C.2       1 <0>        -0.2094
     15 C12        -8.2248    0.7528   -3.4812 C.2       1 <0>         0.0594
     16 C13        -7.4297    1.8361   -4.0772 C.ar      1 <0>        -0.0604
     17 C14        -6.0598    1.6605   -4.3035 C.ar      1 <0>        -0.1059
     18 C15        -5.3202    2.6803   -4.8632 C.ar      1 <0>        -0.0852
     19 C16        -5.9280    3.8768   -5.2016 C.ar      1 <0>        -0.1315
     20 C17        -7.2841    4.0602   -4.9807 C.ar      1 <0>         0.1002
     21 C18        -8.0396    3.0456   -4.4261 C.ar      1 <0>        -0.1191
     22 F1         -7.8691    5.2316   -5.3137 F         1 <0>        -0.1332
     23 S1         -5.8796   -0.4697   -2.4258 S.3       1 <0>        -0.0118
     24 H1          1.2971    0.9971   -0.6700 H         1 <0>         0.0596
     25 H2         -0.3251    1.2050   -1.3725 H         1 <0>         0.0563
     26 H3         -0.1484    0.7143    0.3294 H         1 <0>         0.0564
     27 H4          0.6900   -0.9386   -2.0958 H         1 <0>         0.0738
     28 H5          0.8667   -1.4292   -0.3940 H         1 <0>         0.0741
     29 H6         -1.0747   -1.9931    0.9454 H         1 <0>         0.1304
     30 H7         -3.3831   -2.8415    0.9530 H         1 <0>         0.1314
     31 H8         -3.8026   -1.6761   -3.1549 H         1 <0>         0.1293
     32 H9         -1.4950   -0.8259   -3.1369 H         1 <0>         0.1281
     33 H10        -7.6680   -3.2046   -1.3716 H         1 <0>         0.4249
     34 H11        -9.3026    0.7744   -3.5479 H         1 <0>         0.1649
     35 H12        -5.5831    0.7279   -4.0400 H         1 <0>         0.1415
     36 H13        -4.2629    2.5454   -5.0377 H         1 <0>         0.1422
     37 H14        -5.3427    4.6717   -5.6397 H         1 <0>         0.1428
     38 H15        -9.0972    3.1872   -4.2587 H         1 <0>         0.1469
@<TRIPOS>BOND
     1    1    2 1
     2    1   24 1
     3    1   25 1
     4    1   26 1
     5    2    3 1
     6    2   27 1
     7    2   28 1
     8    3    8 ar
     9    3    4 ar
    10    4    5 ar
    11    4   29 1
    12    5    6 ar
    13    5   30 1
    14    6    7 ar
    15    6    9 1
    16    7    8 ar
    17    7   31 1
    18    8   32 1
    19    9   10 2
    20   10   23 1
    21   10   11 1
    22   11   12 am
    23   11   33 1
    24   12   13 2
    25   12   14 1
    26   14   15 2
    27   14   23 1
    28   15   16 1
    29   15   34 1
    30   16   21 ar
    31   16   17 ar
    32   17   18 ar
    33   17   35 1
    34   18   19 ar
    35   18   36 1
    36   19   20 ar
    37   19   37 1
    38   20   21 ar
    39   20   22 1
    40   21   38 1
