@<TRIPOS>MOLECULE
ZINC04964742
   53    56     0     0     0
SMALL
USER_CHARGES

@<TRIPOS>ATOM
      1 C1         -0.0035    1.3925    0.1802 C.ar      1 <0>        -0.1167
      2 C2          0.2583    0.3577    1.0612 C.ar      1 <0>        -0.1216
      3 C3          1.4570   -0.3208    0.9968 C.ar      1 <0>        -0.1065
      4 C4          2.4092    0.0390    0.0381 C.ar      1 <0>        -0.0600
      5 C5          2.1372    1.0856   -0.8485 C.ar      1 <0>        -0.1019
      6 C6          0.9339    1.7546   -0.7714 C.ar      1 <0>        -0.1206
      7 C7          3.6915   -0.6799   -0.0372 C.2       1 <0>        -0.0647
      8 C8          3.7170   -2.0250    0.0572 C.2       1 <0>        -0.0553
      9 C9          2.4283   -2.7900    0.0588 C.3       1 <0>        -0.0802
     10 C10         2.5974   -4.2948    0.0094 C.3       1 <0>        -0.1186
     11 C11         3.8518   -4.7889    0.7272 C.3       1 <0>        -0.1041
     12 C12         5.0715   -4.2089    0.0094 C.3       1 <0>        -0.0981
     13 H1          5.1142   -4.5205   -1.0342 H         1 <0>         0.1128
     14 C13         4.9600   -2.6942    0.1474 C.2       1 <0>         0.1326
     15 N1          6.1391   -2.2267    0.3721 N.2       1 <0>        -0.2246
     16 N2          7.0940   -3.2178    0.6286 N.am      1 <0>        -0.4705
     17 C14         6.3793   -4.5217    0.7564 C.3       1 <0>         0.1538
     18 H2          6.9303   -5.3217    0.2619 H         1 <0>         0.1125
     19 C15         6.1092   -4.8657    2.1985 C.ar      1 <0>        -0.0835
     20 C16         5.8819   -3.8591    3.1183 C.ar      1 <0>        -0.1007
     21 C17         5.6342   -4.1746    4.4412 C.ar      1 <0>        -0.1175
     22 C18         5.6133   -5.4967    4.8442 C.ar      1 <0>        -0.1167
     23 C19         5.8397   -6.5034    3.9242 C.ar      1 <0>        -0.1179
     24 C20         6.0832   -6.1880    2.6005 C.ar      1 <0>        -0.1026
     25 C21         8.4239   -3.0303    0.7418 C.2       1 <0>         0.5751
     26 O1          9.1526   -3.9738    0.9662 O.2       1 <0>        -0.4870
     27 C22         9.0056   -1.6484    0.5894 C.3       1 <0>        -0.1415
     28 S1         10.8064   -1.7246    0.7939 S.3       1 <0>        -0.1398
     29 C23        11.3450   -0.0051    0.5845 C.3       1 <0>        -0.1645
     30 C24        12.8426    0.0738    0.7324 C.2       1 <0>         0.5122
     31 O2         13.4869   -0.9363    0.9582 O.co2     1 <0>        -0.6697
     32 O3         13.4099    1.1478    0.6263 O.co2     1 <0>        -0.6896
     33 H3         -0.9460    1.9172    0.2327 H         1 <0>         0.1209
     34 H4         -0.4780    0.0812    1.8013 H         1 <0>         0.1231
     35 H5          1.6600   -1.1279    1.6851 H         1 <0>         0.1298
     36 H6          2.8679    1.3696   -1.5914 H         1 <0>         0.1258
     37 H7          0.7222    2.5629   -1.4556 H         1 <0>         0.1232
     38 H8          4.6119   -0.1302   -0.1680 H         1 <0>         0.1349
     39 H9          1.8743   -2.5332    0.9618 H         1 <0>         0.0836
     40 H10         1.8399   -2.4790   -0.8044 H         1 <0>         0.0811
     41 H11         1.7255   -4.7596    0.4697 H         1 <0>         0.0708
     42 H12         2.6462   -4.6068   -1.0339 H         1 <0>         0.0634
     43 H13         3.8397   -4.4513    1.7635 H         1 <0>         0.0779
     44 H14         3.8893   -5.8778    0.6949 H         1 <0>         0.0743
     45 H15         5.8983   -2.8261    2.8034 H         1 <0>         0.1182
     46 H16         5.4573   -3.3881    5.1599 H         1 <0>         0.1218
     47 H17         5.4204   -5.7432    5.8778 H         1 <0>         0.1217
     48 H18         5.8237   -7.5363    4.2392 H         1 <0>         0.1235
     49 H19         6.2564   -6.9747    1.8811 H         1 <0>         0.1231
     50 H20         8.7685   -1.2616   -0.4017 H         1 <0>         0.1025
     51 H21         8.5814   -0.9900    1.3475 H         1 <0>         0.1048
     52 H22        11.0587    0.3472   -0.4065 H         1 <0>         0.0752
     53 H23        10.8716    0.6188    1.3426 H         1 <0>         0.0754
@<TRIPOS>BOND
     1    1    6 ar
     2    1    2 ar
     3    1   33 1
     4    2    3 ar
     5    2   34 1
     6    3    4 ar
     7    3   35 1
     8    4    5 ar
     9    4    7 1
    10    5    6 ar
    11    5   36 1
    12    6   37 1
    13    7    8 2
    14    7   38 1
    15    8   14 1
    16    8    9 1
    17    9   10 1
    18    9   39 1
    19    9   40 1
    20   10   11 1
    21   10   41 1
    22   10   42 1
    23   11   12 1
    24   11   43 1
    25   11   44 1
    26   12   13 1
    27   12   17 1
    28   12   14 1
    29   14   15 2
    30   15   16 1
    31   16   17 1
    32   16   25 am
    33   17   18 1
    34   17   19 1
    35   19   24 ar
    36   19   20 ar
    37   20   21 ar
    38   20   45 1
    39   21   22 ar
    40   21   46 1
    41   22   23 ar
    42   22   47 1
    43   23   24 ar
    44   23   48 1
    45   24   49 1
    46   25   26 2
    47   25   27 1
    48   27   28 1
    49   27   50 1
    50   27   51 1
    51   28   29 1
    52   29   30 1
    53   29   52 1
    54   29   53 1
    55   30   31 2
    56   30   32 1
