@<TRIPOS>MOLECULE
ZINC39529576
   56    59     0     0     0
SMALL
USER_CHARGES

@<TRIPOS>ATOM
      1 C1         -3.2186   -2.1919   -5.5339 C.3       1 <0>        -0.1524
      2 C2         -3.6957   -1.9200   -4.1058 C.3       1 <0>         0.0655
      3 O1         -2.9969   -2.7753   -3.1991 O.3       1 <0>        -0.3839
      4 C3         -3.3701   -2.6008   -1.8308 C.3       1 <0>         0.2424
      5 H1         -4.4560   -2.6340   -1.7429 H         1 <0>         0.0730
      6 C4         -2.7542   -3.7211   -0.9859 C.3       1 <0>         0.1223
      7 N1         -3.0250   -3.4397    0.4321 N.pl3     1 <0>        -0.6673
      8 C5         -2.6846   -2.1076    0.9544 C.3       1 <0>         0.1081
      9 C6         -3.3032   -1.0508    0.0332 C.3       1 <0>         0.0504
     10 N2         -2.8788   -1.3024   -1.3505 N.3       1 <0>        -0.7037
     11 C7         -3.5900   -4.4100    1.2593 C.ar      1 <0>         0.1823
     12 C8         -4.9656   -4.5929    1.2801 C.ar      1 <0>        -0.1213
     13 C9         -5.5230   -5.5546    2.1001 C.ar      1 <0>        -0.1037
     14 C10        -4.7159   -6.3406    2.9042 C.ar      1 <0>        -0.0761
     15 C11        -3.3464   -6.1702    2.8940 C.ar      1 <0>        -0.0931
     16 C12        -2.7716   -5.2075    2.0677 C.ar      1 <0>        -0.0534
     17 C13        -1.3000   -5.0245    2.0486 C.ar      1 <0>        -0.0340
     18 C14        -0.5984   -5.1229    0.8483 C.ar      1 <0>        -0.0947
     19 C15         0.7709   -4.9518    0.8365 C.ar      1 <0>        -0.1211
     20 C16         1.4472   -4.6835    2.0129 C.ar      1 <0>        -0.1189
     21 C17         0.7561   -4.5847    3.2071 C.ar      1 <0>        -0.1199
     22 C18        -0.6141   -4.7479    3.2299 C.ar      1 <0>        -0.1093
     23 C19        -5.3352   -7.3867    3.7948 C.3       1 <0>        -0.0423
     24 C20        -5.4309   -8.6911    3.0462 C.ar      1 <0>        -0.0768
     25 C21        -6.5598   -8.9801    2.3025 C.ar      1 <0>        -0.1144
     26 C22        -6.6475  -10.1766    1.6158 C.ar      1 <0>        -0.1180
     27 C23        -5.6062  -11.0839    1.6724 C.ar      1 <0>        -0.1234
     28 C24        -4.4769  -10.7946    2.4153 C.ar      1 <0>        -0.1177
     29 C25        -4.3874   -9.5962    3.0985 C.ar      1 <0>        -0.1140
     30 H2         -3.7517   -1.5395   -6.2255 H         1 <0>         0.0708
     31 H3         -2.1483   -1.9974   -5.6026 H         1 <0>         0.0621
     32 H4         -3.4160   -3.2327   -5.7909 H         1 <0>         0.0603
     33 H5         -3.4983   -0.8793   -3.8488 H         1 <0>         0.0608
     34 H6         -4.7660   -2.1145   -4.0370 H         1 <0>         0.0437
     35 H7         -3.2018   -4.6760   -1.2617 H         1 <0>         0.0792
     36 H8         -1.6777   -3.7563   -1.1532 H         1 <0>         0.0626
     37 H9         -3.0862   -1.9956    1.9616 H         1 <0>         0.0759
     38 H10        -1.6014   -1.9877    0.9737 H         1 <0>         0.0524
     39 H11        -4.3901   -1.1052    0.0955 H         1 <0>         0.0754
     40 H12        -2.9700   -0.0597    0.3413 H         1 <0>         0.0860
     41 H13        -1.8755   -1.2407   -1.4374 H         1 <0>         0.3461
     42 H14        -5.6006   -3.9827    0.6549 H         1 <0>         0.1219
     43 H15        -6.5939   -5.6936    2.1141 H         1 <0>         0.1225
     44 H16        -2.7206   -6.7853    3.5237 H         1 <0>         0.1228
     45 H17        -1.1253   -5.3331   -0.0708 H         1 <0>         0.1194
     46 H18         1.3156   -5.0278   -0.0930 H         1 <0>         0.1211
     47 H19         2.5190   -4.5509    1.9991 H         1 <0>         0.1206
     48 H20         1.2892   -4.3750    4.1227 H         1 <0>         0.1220
     49 H21        -1.1533   -4.6658    4.1621 H         1 <0>         0.1201
     50 H22        -4.7162   -7.5214    4.6818 H         1 <0>         0.0827
     51 H23        -6.3330   -7.0652    4.0934 H         1 <0>         0.0836
     52 H24        -7.3733   -8.2711    2.2583 H         1 <0>         0.1202
     53 H25        -7.5298  -10.4026    1.0354 H         1 <0>         0.1215
     54 H26        -5.6751  -12.0191    1.1365 H         1 <0>         0.1209
     55 H27        -3.6635  -11.5037    2.4598 H         1 <0>         0.1214
     56 H28        -3.5035   -9.3686    3.6760 H         1 <0>         0.1198
@<TRIPOS>BOND
     1    1    2 1
     2    1   30 1
     3    1   31 1
     4    1   32 1
     5    2    3 1
     6    2   33 1
     7    2   34 1
     8    3    4 1
     9    4    5 1
    10    4   10 1
    11    4    6 1
    12    6    7 1
    13    6   35 1
    14    6   36 1
    15    7    8 1
    16    7   11 1
    17    8    9 1
    18    8   37 1
    19    8   38 1
    20    9   10 1
    21    9   39 1
    22    9   40 1
    23   10   41 1
    24   11   16 ar
    25   11   12 ar
    26   12   13 ar
    27   12   42 1
    28   13   14 ar
    29   13   43 1
    30   14   15 ar
    31   14   23 1
    32   15   16 ar
    33   15   44 1
    34   16   17 1
    35   17   22 ar
    36   17   18 ar
    37   18   19 ar
    38   18   45 1
    39   19   20 ar
    40   19   46 1
    41   20   21 ar
    42   20   47 1
    43   21   22 ar
    44   21   48 1
    45   22   49 1
    46   23   24 1
    47   23   50 1
    48   23   51 1
    49   24   29 ar
    50   24   25 ar
    51   25   26 ar
    52   25   52 1
    53   26   27 ar
    54   26   53 1
    55   27   28 ar
    56   27   54 1
    57   28   29 ar
    58   28   55 1
    59   29   56 1
