@<TRIPOS>MOLECULE
ZINC09453499
   56    59     0     0     0
SMALL
USER_CHARGES

@<TRIPOS>ATOM
      1 C1         -1.9906    1.5091    0.8232 C.3       1 <0>        -0.1738
      2 C2         -1.9465    0.0030    0.8504 C.2       1 <0>         0.5096
      3 O1         -2.4891   -0.6034    1.7498 O.2       1 <0>        -0.5241
      4 N1         -1.3042   -0.6701   -0.1247 N.am      1 <0>        -0.6759
      5 C3         -1.1792   -2.0632   -0.0488 C.ar      1 <0>         0.1307
      6 C4         -0.0256   -2.6830   -0.5107 C.ar      1 <0>        -0.1259
      7 C5          0.0977   -4.0559   -0.4359 C.ar      1 <0>        -0.1208
      8 C6         -0.9320   -4.8172    0.1014 C.ar      1 <0>         0.1255
      9 C7         -2.0857   -4.1973    0.5634 C.ar      1 <0>        -0.0986
     10 C8         -2.2066   -2.8240    0.4937 C.ar      1 <0>        -0.1016
     11 N2         -0.8072   -6.2103    0.1769 N.am      1 <0>        -0.6633
     12 C9         -1.8881   -6.9946   -0.0047 C.2       1 <0>         0.5372
     13 O2         -2.9833   -6.4938   -0.1496 O.2       1 <0>        -0.5021
     14 C10        -1.7360   -8.4937   -0.0278 C.3       1 <0>        -0.1607
     15 S1         -3.3585   -9.2621   -0.2882 S.3       1 <0>         0.1240
     16 C11        -3.0161  -10.9905   -0.2904 C.2       1 <0>         0.1866
     17 N3         -1.8385  -11.5521   -0.1295 N.2       1 <0>        -0.2852
     18 N4         -1.9474  -12.8313   -0.1860 N.2       1 <0>        -0.2230
     19 C12        -3.2023  -13.1660   -0.3867 C.2       1 <0>         0.2047
     20 N5         -3.9259  -11.9963   -0.4537 N.pl3     1 <0>        -0.3049
     21 N6         -5.2722  -11.8684   -0.6462 N.3       1 <0>        -0.5828
     22 C13        -3.7352  -14.5343   -0.5104 C.2       1 <0>         0.1436
     23 C14        -3.0994  -15.6863   -0.1391 C.2       1 <0>        -0.1800
     24 C15        -3.9566  -16.7604   -0.4276 C.2       1 <0>         0.1327
     25 N7         -5.0645  -16.2783   -0.9514 N.2       1 <0>        -0.2529
     26 N8         -4.9568  -14.8832   -1.0112 N.pl3     1 <0>        -0.4800
     27 H1         -5.6301  -14.2729   -1.3504 H         1 <0>         0.4325
     28 C16        -3.6634  -18.1950   -0.1843 C.ar      1 <0>        -0.0652
     29 C17        -2.4483  -18.5727    0.3835 C.ar      1 <0>        -0.0489
     30 C18        -2.1788  -19.9064    0.6089 C.ar      1 <0>        -0.1516
     31 C19        -3.1168  -20.8722    0.2706 C.ar      1 <0>         0.1420
     32 C20        -4.3280  -20.4990   -0.2957 C.ar      1 <0>        -0.2112
     33 C21        -4.6052  -19.1663   -0.5180 C.ar      1 <0>        -0.0454
     34 O3         -2.8486  -22.1856    0.4937 O.3       1 <0>        -0.3149
     35 C22        -3.8581  -23.1261    0.1217 C.3       1 <0>         0.0249
     36 H2         -2.5493    1.8719    1.6859 H         1 <0>         0.0973
     37 H3         -0.9748    1.9030    0.8564 H         1 <0>         0.0922
     38 H4         -2.4794    1.8418   -0.0925 H         1 <0>         0.0921
     39 H5         -0.9286   -0.1898   -0.8791 H         1 <0>         0.4122
     40 H6          0.7751   -2.0910   -0.9289 H         1 <0>         0.1313
     41 H7          0.9947   -4.5379   -0.7955 H         1 <0>         0.1320
     42 H8         -2.8867   -4.7894    0.9808 H         1 <0>         0.1434
     43 H9         -3.1017   -2.3415    0.8574 H         1 <0>         0.1427
     44 H10         0.0572   -6.6106    0.3600 H         1 <0>         0.4156
     45 H11        -1.0649   -8.7784   -0.8382 H         1 <0>         0.1320
     46 H12        -1.3222   -8.8316    0.9223 H         1 <0>         0.1326
     47 H13        -5.5009  -11.8915   -1.6287 H         1 <0>         0.3711
     48 H14        -5.7790  -12.5792   -0.1402 H         1 <0>         0.3759
     49 H15        -2.1141  -15.7574    0.2973 H         1 <0>         0.1678
     50 H16        -1.7180  -17.8217    0.6466 H         1 <0>         0.1384
     51 H17        -1.2370  -20.1997    1.0487 H         1 <0>         0.1384
     52 H18        -5.0556  -21.2525   -0.5586 H         1 <0>         0.1332
     53 H19        -5.5495  -18.8761   -0.9545 H         1 <0>         0.1328
     54 H20        -4.0542  -23.0448   -0.9474 H         1 <0>         0.0577
     55 H21        -3.5172  -24.1353    0.3529 H         1 <0>         0.1025
     56 H22        -4.7727  -22.9157    0.6760 H         1 <0>         0.0577
@<TRIPOS>BOND
     1    1    2 1
     2    1   36 1
     3    1   37 1
     4    1   38 1
     5    2    3 2
     6    2    4 am
     7    4    5 1
     8    4   39 1
     9    5   10 ar
    10    5    6 ar
    11    6    7 ar
    12    6   40 1
    13    7    8 ar
    14    7   41 1
    15    8    9 ar
    16    8   11 1
    17    9   10 ar
    18    9   42 1
    19   10   43 1
    20   11   12 am
    21   11   44 1
    22   12   13 2
    23   12   14 1
    24   14   15 1
    25   14   45 1
    26   14   46 1
    27   15   16 1
    28   16   20 1
    29   16   17 2
    30   17   18 1
    31   18   19 2
    32   19   20 1
    33   19   22 1
    34   20   21 1
    35   21   47 1
    36   21   48 1
    37   22   26 1
    38   22   23 2
    39   23   24 1
    40   23   49 1
    41   24   25 2
    42   24   28 1
    43   25   26 1
    44   26   27 1
    45   28   33 ar
    46   28   29 ar
    47   29   30 ar
    48   29   50 1
    49   30   31 ar
    50   30   51 1
    51   31   32 ar
    52   31   34 1
    53   32   33 ar
    54   32   52 1
    55   33   53 1
    56   34   35 1
    57   35   54 1
    58   35   55 1
    59   35   56 1
