@<TRIPOS>MOLECULE
ZINC13401546
   82    86     0     0     0
SMALL
USER_CHARGES
(3S,5R,8S,9R,10S,13S,14R,17S)-17-[(1R)-1,5-dimethylhexyl]-10,13-dimethyl-spiro[1,2,3,4,5,7,8,9,11,12,14,15,16,17-tetradecahydrocyclopenta[a]phenanthrene-6,2'-1,3-dioxolane]-3-ol
@<TRIPOS>ATOM
      1 C1         -1.5643    0.3860    3.4251 C.3       1 <0>        -0.1489
      2 C2         -2.6795    1.2625    3.9987 C.3       1 <0>        -0.0979
      3 C3         -2.7987    1.0160    5.5039 C.3       1 <0>        -0.1493
      4 C4         -2.3506    2.7355    3.7476 C.3       1 <0>        -0.1144
      5 C5         -3.5218    3.6053    4.2087 C.3       1 <0>        -0.1224
      6 C6         -3.1930    5.0783    3.9576 C.3       1 <0>        -0.1214
      7 C7         -4.3642    5.9481    4.4187 C.3       1 <0>        -0.0853
      8 H1         -5.2786    5.6169    3.9265 H         1 <0>         0.0766
      9 C8         -4.5269    5.8225    5.9348 C.3       1 <0>        -0.1515
     10 C9         -4.0892    7.4085    4.0546 C.3       1 <0>        -0.0727
     11 H2         -3.1616    7.7443    4.5182 H         1 <0>         0.0694
     12 C10        -5.2691    8.3049    4.5052 C.3       1 <0>        -0.1188
     13 C11        -5.7845    9.0256    3.2297 C.3       1 <0>        -0.1171
     14 C12        -4.5649    8.9971    2.3039 C.3       1 <0>        -0.0784
     15 H3         -3.8259    9.7184    2.6527 H         1 <0>         0.0690
     16 C13        -4.0109    7.5696    2.5383 C.3       1 <0>        -0.0525
     17 C14        -2.6215    7.5360    1.9337 C.3       1 <0>        -0.1054
     18 C15        -2.7772    7.6916    0.4197 C.3       1 <0>        -0.1224
     19 C16        -3.5799    8.9076    0.0036 C.3       1 <0>        -0.0658
     20 H4         -2.9138    9.7661    0.0893 H         1 <0>         0.0602
     21 C17        -4.8099    9.1994    0.8399 C.3       1 <0>        -0.0563
     22 H5         -5.0661   10.2484    0.6913 H         1 <0>         0.0632
     23 C18        -5.9956    8.3829    0.3335 C.3       1 <0>        -0.1550
     24 C19        -6.4366    8.9332   -1.0252 C.3       1 <0>         0.2613
     25 C20        -5.2471    9.5507   -1.7668 C.3       1 <0>        -0.0637
     26 H6         -5.1220   10.5865   -1.4516 H         1 <0>         0.0931
     27 C21        -3.9675    8.7748   -1.4766 C.3       1 <0>        -0.0392
     28 C22        -2.8085    9.3295   -2.3113 C.3       1 <0>        -0.1025
     29 C23        -3.1465    9.2506   -3.7992 C.3       1 <0>        -0.1541
     30 C24        -4.3994   10.0895   -4.0670 C.3       1 <0>         0.1038
     31 H7         -4.6386   10.0626   -5.1301 H         1 <0>         0.0523
     32 C25        -5.5636    9.5092   -3.2657 C.3       1 <0>        -0.1029
     33 O1         -4.1664   11.4402   -3.6629 O.3       1 <0>        -0.5620
     34 C26        -4.1784    7.2983   -1.8176 C.3       1 <0>        -0.1509
     35 O2         -6.9906    7.8727   -1.8226 O.3       1 <0>        -0.3643
     36 C27        -8.4193    7.9506   -1.6018 C.3       1 <0>         0.0132
     37 C28        -8.6381    9.4805   -1.4949 C.3       1 <0>         0.0199
     38 O3         -7.4438    9.9350   -0.8272 O.3       1 <0>        -0.3762
     39 C29        -4.9145    6.5403    1.8565 C.3       1 <0>        -0.1706
     40 H8         -1.7986   -0.6634    3.6039 H         1 <0>         0.0531
     41 H9         -0.6205    0.6354    3.9100 H         1 <0>         0.0534
     42 H10        -1.4794    0.5617    2.3527 H         1 <0>         0.0532
     43 H11        -3.6233    1.0132    3.5138 H         1 <0>         0.0674
     44 H12        -3.5932    1.6404    5.9126 H         1 <0>         0.0561
     45 H13        -3.0330   -0.0334    5.6828 H         1 <0>         0.0517
     46 H14        -1.8549    1.2653    5.9888 H         1 <0>         0.0530
     47 H15        -1.4543    3.0078    4.3049 H         1 <0>         0.0599
     48 H16        -2.1782    2.8929    2.6829 H         1 <0>         0.0596
     49 H17        -4.4181    3.3330    3.6513 H         1 <0>         0.0579
     50 H18        -3.6942    3.4479    5.2734 H         1 <0>         0.0651
     51 H19        -2.2967    5.3506    4.5149 H         1 <0>         0.0583
     52 H20        -3.0206    5.2357    2.8929 H         1 <0>         0.0727
     53 H21        -3.6125    6.1537    6.4270 H         1 <0>         0.0513
     54 H22        -5.3612    6.4421    6.2633 H         1 <0>         0.0540
     55 H23        -4.7228    4.7821    6.1942 H         1 <0>         0.0540
     56 H24        -6.0616    7.6921    4.9346 H         1 <0>         0.0651
     57 H25        -4.9247    9.0373    5.2354 H         1 <0>         0.0602
     58 H26        -6.6173    8.4788    2.7875 H         1 <0>         0.0688
     59 H27        -6.0756   10.0511    3.4571 H         1 <0>         0.0621
     60 H28        -2.1419    6.5840    2.1611 H         1 <0>         0.0676
     61 H29        -2.0236    8.3562    2.3310 H         1 <0>         0.0597
     62 H30        -3.2682    6.8008    0.0279 H         1 <0>         0.0760
     63 H31        -1.7850    7.7615   -0.0260 H         1 <0>         0.0566
     64 H32        -5.6996    7.3398    0.2224 H         1 <0>         0.1117
     65 H33        -6.8195    8.4568    1.0433 H         1 <0>         0.0739
     66 H34        -2.6301   10.3690   -2.0359 H         1 <0>         0.0676
     67 H35        -1.9093    8.7461   -2.1136 H         1 <0>         0.0622
     68 H36        -3.3353    8.2135   -4.0764 H         1 <0>         0.0742
     69 H37        -2.3143    9.6397   -4.3859 H         1 <0>         0.0627
     70 H38        -5.7327    8.4765   -3.5707 H         1 <0>         0.0881
     71 H39        -6.4630   10.0931   -3.4612 H         1 <0>         0.0625
     72 H40        -3.4390   11.8712   -4.1321 H         1 <0>         0.3740
     73 H41        -4.8811    6.8586   -1.1098 H         1 <0>         0.0671
     74 H42        -4.5785    7.2123   -2.8279 H         1 <0>         0.0582
     75 H43        -3.2257    6.7720   -1.7582 H         1 <0>         0.0547
     76 H44        -8.6987    7.4507   -0.6744 H         1 <0>         0.0735
     77 H45        -8.9680    7.5361   -2.4475 H         1 <0>         0.1062
     78 H46        -9.5219    9.7023   -0.8968 H         1 <0>         0.0965
     79 H47        -8.7196    9.9281   -2.4854 H         1 <0>         0.0734
     80 H48        -5.9544    6.8548    1.9446 H         1 <0>         0.0605
     81 H49        -4.6463    6.4627    0.8028 H         1 <0>         0.0697
     82 H50        -4.7864    5.5700    2.3364 H         1 <0>         0.0663
@<TRIPOS>BOND
     1    1    2 1
     2    1   40 1
     3    1   41 1
     4    1   42 1
     5    2    3 1
     6    2    4 1
     7    2   43 1
     8    3   44 1
     9    3   45 1
    10    3   46 1
    11    4    5 1
    12    4   47 1
    13    4   48 1
    14    5    6 1
    15    5   49 1
    16    5   50 1
    17    6    7 1
    18    6   51 1
    19    6   52 1
    20    7    8 1
    21    7    9 1
    22    7   10 1
    23    9   53 1
    24    9   54 1
    25    9   55 1
    26   10   11 1
    27   10   16 1
    28   10   12 1
    29   12   13 1
    30   12   56 1
    31   12   57 1
    32   13   14 1
    33   13   58 1
    34   13   59 1
    35   14   15 1
    36   14   21 1
    37   14   16 1
    38   16   17 1
    39   16   39 1
    40   17   18 1
    41   17   60 1
    42   17   61 1
    43   18   19 1
    44   18   62 1
    45   18   63 1
    46   19   20 1
    47   19   27 1
    48   19   21 1
    49   21   22 1
    50   21   23 1
    51   23   24 1
    52   23   64 1
    53   23   65 1
    54   24   38 1
    55   24   25 1
    56   24   35 1
    57   25   26 1
    58   25   32 1
    59   25   27 1
    60   27   28 1
    61   27   34 1
    62   28   29 1
    63   28   66 1
    64   28   67 1
    65   29   30 1
    66   29   68 1
    67   29   69 1
    68   30   31 1
    69   30   32 1
    70   30   33 1
    71   32   70 1
    72   32   71 1
    73   33   72 1
    74   34   73 1
    75   34   74 1
    76   34   75 1
    77   35   36 1
    78   36   37 1
    79   36   76 1
    80   36   77 1
    81   37   38 1
    82   37   78 1
    83   37   79 1
    84   39   80 1
    85   39   81 1
    86   39   82 1
