@<TRIPOS>MOLECULE
ZINC08872703
   59    62     0     0     0
SMALL
USER_CHARGES
N4-(4-methoxyphenyl)-N2-(4-nitrophenyl)-N6-[1-(4-nitrophenyl)ethylideneamino]-1,3,5-triazine-2,4,6-triamine
@<TRIPOS>ATOM
      1 C1          8.2252    2.3512   -1.2069 C.3       1 <0>        -0.1595
      2 C2          8.1454    3.6096   -0.3817 C.2       1 <0>         0.1192
      3 N1          7.0335    4.2759   -0.3204 N.2       1 <0>        -0.1902
      4 N2          5.9058    3.8223   -1.0170 N.pl3     1 <0>        -0.5297
      5 C3          4.7499    4.5783   -1.0269 C.ar      1 <0>         0.6775
      6 N3          3.7131    4.1982   -1.7679 N.ar      1 <0>        -0.6587
      7 C4          2.6026    4.9285   -1.7814 C.ar      1 <0>         0.6516
      8 N4          2.5246    6.0336   -1.0462 N.ar      1 <0>        -0.6450
      9 C5          3.5592    6.4110   -0.3015 C.ar      1 <0>         0.6519
     10 N5          4.6719    5.6833   -0.2918 N.ar      1 <0>        -0.6263
     11 N6          3.4783    7.5592    0.4619 N.pl3     1 <0>        -0.6171
     12 C6          2.2601    8.2414    0.5738 C.ar      1 <0>         0.1175
     13 C7          1.0655    7.5336    0.5775 C.ar      1 <0>        -0.0684
     14 C8         -0.1349    8.2065    0.6936 C.ar      1 <0>        -0.1894
     15 C9         -0.1480    9.5898    0.7951 C.ar      1 <0>         0.1174
     16 C10         1.0448   10.2980    0.7857 C.ar      1 <0>        -0.1304
     17 C11         2.2462    9.6261    0.6753 C.ar      1 <0>        -0.0989
     18 O1         -1.3306   10.2521    0.9042 O.3       1 <0>        -0.3166
     19 C12        -2.5199    9.4599    0.9073 C.3       1 <0>         0.0267
     20 N7          1.5272    4.5362   -2.5549 N.pl3     1 <0>        -0.6232
     21 C13         1.6511    3.4477   -3.4239 C.ar      1 <0>         0.2233
     22 C14         0.5554    2.6335   -3.6803 C.ar      1 <0>        -0.1480
     23 C15         0.6810    1.5595   -4.5394 C.ar      1 <0>        -0.0274
     24 C16         1.8959    1.2946   -5.1445 C.ar      1 <0>        -0.0659
     25 C17         2.9888    2.1032   -4.8914 C.ar      1 <0>        -0.0318
     26 C18         2.8701    3.1783   -4.0326 C.ar      1 <0>        -0.1184
     27 N8          2.0269    0.1426   -6.0647 N.pl3     1 <0>         0.0311
     28 O2          1.0653   -0.5707   -6.2882 O.2       1 <0>        -0.1619
     29 O3          3.0964   -0.0919   -6.5983 O.3       1 <0>        -0.1627
     30 C19         9.3309    4.0840    0.3563 C.ar      1 <0>         0.0122
     31 C20        10.5606    3.4409    0.1966 C.ar      1 <0>        -0.0944
     32 C21        11.6664    3.8933    0.8860 C.ar      1 <0>        -0.0544
     33 C22        11.5571    4.9745    1.7424 C.ar      1 <0>        -0.0341
     34 C23        10.3409    5.6129    1.9099 C.ar      1 <0>        -0.0548
     35 C24         9.2281    5.1750    1.2226 C.ar      1 <0>        -0.0814
     36 N9         12.7468    5.4503    2.4834 N.pl3     1 <0>         0.0243
     37 O4         12.6538    6.4016    3.2384 O.2       1 <0>        -0.1549
     38 O5         13.8188    4.8905    2.3382 O.3       1 <0>        -0.1549
     39 H1          8.5313    2.6015   -2.2226 H         1 <0>         0.0952
     40 H2          8.9544    1.6723   -0.7646 H         1 <0>         0.0949
     41 H3          7.2478    1.8694   -1.2303 H         1 <0>         0.0739
     42 H4          5.9367    2.9773   -1.4923 H         1 <0>         0.4097
     43 H5          4.2651    7.8932    0.9204 H         1 <0>         0.4291
     44 H6          1.0753    6.4569    0.4937 H         1 <0>         0.1336
     45 H7         -1.0639    7.6558    0.7010 H         1 <0>         0.1313
     46 H8          1.0338   11.3751    0.8643 H         1 <0>         0.1373
     47 H9          3.1748   10.1776    0.6684 H         1 <0>         0.1347
     48 H10        -2.5841    8.8973   -0.0241 H         1 <0>         0.0557
     49 H11        -2.4932    8.7676    1.7488 H         1 <0>         0.0559
     50 H12        -3.3896   10.1104    0.9995 H         1 <0>         0.1014
     51 H13         0.6862    5.0159   -2.4952 H         1 <0>         0.4344
     52 H14        -0.3950    2.8427   -3.2117 H         1 <0>         0.1517
     53 H15        -0.1706    0.9260   -4.7391 H         1 <0>         0.1590
     54 H16         3.9362    1.8936   -5.3656 H         1 <0>         0.1558
     55 H17         3.7242    3.8090   -3.8348 H         1 <0>         0.1573
     56 H18        10.6464    2.5942   -0.4685 H         1 <0>         0.1554
     57 H19        12.6187    3.3998    0.7601 H         1 <0>         0.1602
     58 H20        10.2629    6.4562    2.5800 H         1 <0>         0.1590
     59 H21         8.2796    5.6746    1.3537 H         1 <0>         0.1599
@<TRIPOS>BOND
     1    1    2 1
     2    1   39 1
     3    1   40 1
     4    1   41 1
     5    2    3 2
     6    2   30 1
     7    3    4 1
     8    4    5 1
     9    4   42 1
    10    5   10 ar
    11    5    6 ar
    12    6    7 ar
    13    7    8 ar
    14    7   20 1
    15    8    9 ar
    16    9   10 ar
    17    9   11 1
    18   11   12 1
    19   11   43 1
    20   12   17 ar
    21   12   13 ar
    22   13   14 ar
    23   13   44 1
    24   14   15 ar
    25   14   45 1
    26   15   16 ar
    27   15   18 1
    28   16   17 ar
    29   16   46 1
    30   17   47 1
    31   18   19 1
    32   19   48 1
    33   19   49 1
    34   19   50 1
    35   20   21 1
    36   20   51 1
    37   21   26 ar
    38   21   22 ar
    39   22   23 ar
    40   22   52 1
    41   23   24 ar
    42   23   53 1
    43   24   25 ar
    44   24   27 1
    45   25   26 ar
    46   25   54 1
    47   26   55 1
    48   27   28 2
    49   27   29 1
    50   30   35 ar
    51   30   31 ar
    52   31   32 ar
    53   31   56 1
    54   32   33 ar
    55   32   57 1
    56   33   34 ar
    57   33   36 1
    58   34   35 ar
    59   34   58 1
    60   35   59 1
    61   36   37 2
    62   36   38 1
