@<TRIPOS>MOLECULE
ZINC02696707
   52    54     0     0     0
SMALL
USER_CHARGES

@<TRIPOS>ATOM
      1 C1         -3.0100   -2.1667    0.3683 C.3       1 <0>        -0.1539
      2 C2         -1.5427   -1.7475    0.2579 C.3       1 <0>        -0.1239
      3 C3         -0.7499   -2.3563    1.4162 C.3       1 <0>        -0.1237
      4 C4          0.7174   -1.9370    1.3059 C.3       1 <0>        -0.1104
      5 C5          1.4838   -2.4351    2.5328 C.3       1 <0>        -0.0993
      6 H1          0.9880   -2.0845    3.4380 H         1 <0>         0.0804
      7 C6          2.9151   -1.8958    2.4937 C.3       1 <0>        -0.1178
      8 C7          2.8895   -0.3715    2.6230 C.3       1 <0>        -0.1525
      9 C8          1.5149   -3.9648    2.5283 C.3       1 <0>         0.0861
     10 N1          2.1435   -4.4441    3.7618 N.am      1 <0>        -0.5201
     11 C9          3.4516   -4.6300    3.7961 C.2       1 <0>         0.5445
     12 O1          4.1426   -4.4085    2.8179 O.2       1 <0>        -0.4580
     13 C10         4.0305   -5.0980    5.0150 C.2       1 <0>        -0.2558
     14 C11         5.3362   -5.3665    5.3094 C.2       1 <0>         0.1250
     15 C12         5.6893   -5.8261    6.5962 C.2       1 <0>        -0.0409
     16 C13         6.9689   -6.1288    7.0264 C.2       1 <0>        -0.1119
     17 C14         6.8605   -6.5427    8.3566 C.2       1 <0>        -0.1875
     18 C15         5.5268   -6.4787    8.6905 C.2       1 <0>         0.0739
     19 O2          4.8378   -6.0406    7.6209 O.3       1 <0>        -0.1378
     20 C16         4.9498   -6.8268   10.0031 C.ar      1 <0>        -0.0182
     21 C17         5.2761   -8.0406   10.6138 C.ar      1 <0>        -0.0710
     22 C18         4.7339   -8.3599   11.8408 C.ar      1 <0>        -0.1006
     23 C19         3.8675   -7.4820   12.4688 C.ar      1 <0>        -0.0811
     24 C20         3.5382   -6.2775   11.8711 C.ar      1 <0>        -0.0333
     25 C21         4.0788   -5.9414   10.6444 C.ar      1 <0>        -0.0111
     26 Cl1         3.6716   -4.4274    9.8989 Cl        1 <0>        -0.0245
     27 Cl2         2.4496   -5.1843   12.6670 Cl        1 <0>        -0.0350
     28 S1          2.5798   -5.2357    6.0503 S.3       1 <0>         0.0885
     29 C22         1.3779   -4.6843    4.8493 C.2       1 <0>         0.2714
     30 S2         -0.3153   -4.5073    5.0294 S.2       1 <0>        -0.3310
     31 H2         -3.4190   -1.8123    1.3145 H         1 <0>         0.0543
     32 H3         -3.5749   -1.7330   -0.4569 H         1 <0>         0.0525
     33 H4         -3.0815   -3.2536    0.3259 H         1 <0>         0.0537
     34 H5         -1.1338   -2.1019   -0.6882 H         1 <0>         0.0596
     35 H6         -1.4712   -0.6606    0.3003 H         1 <0>         0.0600
     36 H7         -1.1588   -2.0019    2.3624 H         1 <0>         0.0673
     37 H8         -0.8214   -3.4431    1.3739 H         1 <0>         0.0632
     38 H9          1.1524   -2.3703    0.4052 H         1 <0>         0.0658
     39 H10         0.7818   -0.8502    1.2538 H         1 <0>         0.0742
     40 H11         3.4862   -2.3209    3.3190 H         1 <0>         0.0520
     41 H12         3.3819   -2.1725    1.5484 H         1 <0>         0.0705
     42 H13         2.3391   -0.0923    3.5215 H         1 <0>         0.0523
     43 H14         3.9103    0.0046    2.6907 H         1 <0>         0.0543
     44 H15         2.4007    0.0591    1.7491 H         1 <0>         0.0592
     45 H16         0.4967   -4.3487    2.4666 H         1 <0>         0.1143
     46 H17         2.0877   -4.3141    1.6692 H         1 <0>         0.1043
     47 H18         6.0990   -5.2272    4.5576 H         1 <0>         0.1871
     48 H19         7.8768   -6.0592    6.4457 H         1 <0>         0.1705
     49 H20         7.6698   -6.8540    9.0005 H         1 <0>         0.1665
     50 H21         5.9514   -8.7276   10.1254 H         1 <0>         0.1476
     51 H22         4.9858   -9.2979   12.3131 H         1 <0>         0.1499
     52 H23         3.4460   -7.7381   13.4296 H         1 <0>         0.1501
@<TRIPOS>BOND
     1    1    2 1
     2    1   31 1
     3    1   32 1
     4    1   33 1
     5    2    3 1
     6    2   34 1
     7    2   35 1
     8    3    4 1
     9    3   36 1
    10    3   37 1
    11    4    5 1
    12    4   38 1
    13    4   39 1
    14    5    6 1
    15    5    7 1
    16    5    9 1
    17    7    8 1
    18    7   40 1
    19    7   41 1
    20    8   42 1
    21    8   43 1
    22    8   44 1
    23    9   10 1
    24    9   45 1
    25    9   46 1
    26   10   29 1
    27   10   11 am
    28   11   12 2
    29   11   13 1
    30   13   14 2
    31   13   28 1
    32   14   15 1
    33   14   47 1
    34   15   19 1
    35   15   16 2
    36   16   17 1
    37   16   48 1
    38   17   18 2
    39   17   49 1
    40   18   19 1
    41   18   20 1
    42   20   25 ar
    43   20   21 ar
    44   21   22 ar
    45   21   50 1
    46   22   23 ar
    47   22   51 1
    48   23   24 ar
    49   23   52 1
    50   24   25 ar
    51   24   27 1
    52   25   26 1
    53   28   29 1
    54   29   30 2
