@<TRIPOS>MOLECULE
ZINC16854385
   53    54     0     0     0
SMALL
USER_CHARGES
5-[2-[(2,4-dimethylphenyl)methylsulfanyl]ethyl]-2-isobutylsulfanyl-6-methyl-3H-pyrimidin-4-one
@<TRIPOS>ATOM
      1 C1         -0.1294   14.4661    3.8214 C.3       1 <0>        -0.1169
      2 C2         -0.0839   12.9675    3.6688 C.ar      1 <0>        -0.0752
      3 C3         -1.2539   12.2323    3.7139 C.ar      1 <0>        -0.1278
      4 C4         -1.2122   10.8578    3.5744 C.ar      1 <0>        -0.0917
      5 C5         -0.0005   10.2182    3.3898 C.ar      1 <0>        -0.0835
      6 C6          1.1697   10.9527    3.3500 C.ar      1 <0>        -0.0599
      7 C7          1.1274   12.3281    3.4843 C.ar      1 <0>        -0.1228
      8 C8          2.4911   10.2549    3.1550 C.3       1 <0>        -0.1197
      9 C9          0.0450    8.7196    3.2382 C.3       1 <0>        -0.0468
     10 S1         -0.1070    8.2844    1.4838 S.3       1 <0>        -0.2445
     11 C10        -0.0352    6.4719    1.4734 C.3       1 <0>        -0.0828
     12 C11        -0.1538    5.9650    0.0346 C.3       1 <0>        -0.0328
     13 C12        -0.0942    4.4592    0.0260 C.2       1 <0>        -0.2626
     14 C13        -1.2415    3.7195    0.0330 C.2       1 <0>         0.1988
     15 N1         -1.1793    2.3905    0.0207 N.2       1 <0>        -0.5387
     16 C14        -0.0218    1.7577    0.0117 C.2       1 <0>         0.3675
     17 N2          1.1549    2.4433    0.0042 N.am      1 <0>        -0.6174
     18 H1          1.9978    1.9633   -0.0058 H         1 <0>         0.4208
     19 C15         1.1440    3.7934    0.0111 C.2       1 <0>         0.5334
     20 O1          2.1887    4.4236    0.0041 O.2       1 <0>        -0.5265
     21 S2          0.0021   -0.0041    0.0020 S.3       1 <0>        -0.0023
     22 C16        -1.7759   -0.3426    0.0172 C.3       1 <0>        -0.0930
     23 C17        -2.0072   -1.8550    0.0113 C.3       1 <0>        -0.0860
     24 C18        -3.5035   -2.1427    0.1497 C.3       1 <0>        -0.1430
     25 C19        -1.4942   -2.4442   -1.3042 C.3       1 <0>        -0.1561
     26 C20        -2.5811    4.4096    0.0485 C.3       1 <0>        -0.1130
     27 H2         -0.0380   14.7269    4.8757 H         1 <0>         0.0715
     28 H3          0.6937   14.9132    3.2638 H         1 <0>         0.0671
     29 H4         -1.0766   14.8421    3.4349 H         1 <0>         0.0674
     30 H5         -2.2004   12.7319    3.8584 H         1 <0>         0.1234
     31 H6         -2.1261   10.2835    3.6100 H         1 <0>         0.1236
     32 H7          2.0414   12.9024    3.4494 H         1 <0>         0.1235
     33 H8          2.7122   10.1867    2.0899 H         1 <0>         0.0786
     34 H9          3.2778   10.8207    3.6540 H         1 <0>         0.0666
     35 H10         2.4388    9.2526    3.5802 H         1 <0>         0.0667
     36 H11        -0.7780    8.2728    3.7960 H         1 <0>         0.0871
     37 H12         0.9923    8.3439    3.6250 H         1 <0>         0.0922
     38 H13        -0.8565    6.0723    2.0682 H         1 <0>         0.0779
     39 H14         0.9138    6.1434    1.8972 H         1 <0>         0.0817
     40 H15         0.6675    6.3646   -0.5602 H         1 <0>         0.0882
     41 H16        -1.1028    6.2935   -0.3892 H         1 <0>         0.0868
     42 H17        -2.2204    0.0894    0.9138 H         1 <0>         0.1038
     43 H18        -2.2374    0.0990   -0.8661 H         1 <0>         0.1045
     44 H19        -1.4714   -2.3078    0.8456 H         1 <0>         0.0815
     45 H20        -4.0393   -1.6899   -0.6846 H         1 <0>         0.0605
     46 H21        -3.6683   -3.2201    0.1455 H         1 <0>         0.0645
     47 H22        -3.8690   -1.7229    1.0869 H         1 <0>         0.0597
     48 H23        -2.0299   -1.9915   -2.1385 H         1 <0>         0.0616
     49 H24        -0.4282   -2.2393   -1.4029 H         1 <0>         0.0605
     50 H25        -1.6589   -3.5217   -1.3084 H         1 <0>         0.0634
     51 H26        -2.9135    4.5808   -0.9754 H         1 <0>         0.0901
     52 H27        -3.3069    3.7824    0.5660 H         1 <0>         0.0836
     53 H28        -2.4918    5.3647    0.5660 H         1 <0>         0.0864
@<TRIPOS>BOND
     1    1    2 1
     2    1   27 1
     3    1   28 1
     4    1   29 1
     5    2    7 ar
     6    2    3 ar
     7    3    4 ar
     8    3   30 1
     9    4    5 ar
    10    4   31 1
    11    5    6 ar
    12    5    9 1
    13    6    7 ar
    14    6    8 1
    15    7   32 1
    16    8   33 1
    17    8   34 1
    18    8   35 1
    19    9   10 1
    20    9   36 1
    21    9   37 1
    22   10   11 1
    23   11   12 1
    24   11   38 1
    25   11   39 1
    26   12   13 1
    27   12   40 1
    28   12   41 1
    29   13   19 1
    30   13   14 2
    31   14   15 1
    32   14   26 1
    33   15   16 2
    34   16   17 1
    35   16   21 1
    36   17   18 1
    37   17   19 am
    38   19   20 2
    39   21   22 1
    40   22   23 1
    41   22   42 1
    42   22   43 1
    43   23   24 1
    44   23   25 1
    45   23   44 1
    46   24   45 1
    47   24   46 1
    48   24   47 1
    49   25   48 1
    50   25   49 1
    51   25   50 1
    52   26   51 1
    53   26   52 1
    54   26   53 1
