@<TRIPOS>MOLECULE
ZINC13297915
   65    68     0     0     0
SMALL
USER_CHARGES

@<TRIPOS>ATOM
      1 C1          0.2858    1.4857    0.1574 C.3       1 <0>        -0.1129
      2 C2          0.1304   -0.0089    0.0433 C.ar      1 <0>        -0.0832
      3 C3          1.1209   -0.8444    0.5261 C.ar      1 <0>        -0.1187
      4 C4          0.9815   -2.2146    0.4230 C.ar      1 <0>        -0.0593
      5 C5         -0.1552   -2.7531   -0.1657 C.ar      1 <0>         0.1311
      6 C6         -1.1483   -1.9113   -0.6491 C.ar      1 <0>        -0.0848
      7 C7         -1.0050   -0.5421   -0.5387 C.ar      1 <0>        -0.1202
      8 C8         -2.3832   -2.4913   -1.2892 C.3       1 <0>        -0.1117
      9 N1         -0.2993   -4.1408   -0.2721 N.am      1 <0>        -0.6766
     10 C9         -0.2697   -4.9082    0.8355 C.2       1 <0>         0.5300
     11 O1         -0.0363   -4.4066    1.9148 O.2       1 <0>        -0.5006
     12 C10        -0.5265   -6.3896    0.7328 C.3       1 <0>        -0.1298
     13 S1         -0.4178   -7.1379    2.3817 S.3       1 <0>        -0.0403
     14 C11        -0.7375   -8.8470    2.0962 C.2       1 <0>         0.2130
     15 C12        -0.7344   -9.7161    3.1738 C.2       1 <0>        -0.2164
     16 C13        -1.0145  -11.1804    2.8866 C.3       1 <0>         0.1286
     17 H1         -1.8860  -11.4809    3.4683 H         1 <0>         0.0488
     18 C14        -1.2705  -11.5319    1.4334 C.2       1 <0>        -0.3964
     19 C15        -1.5304  -12.8028    1.0865 C.2       1 <0>         0.3337
     20 C16        -1.7877  -13.1859   -0.3466 C.3       1 <0>        -0.1189
     21 C17        -2.4135  -11.9979   -1.0830 C.3       1 <0>        -0.0564
     22 C18        -1.4726  -10.7953   -0.9717 C.3       1 <0>        -0.0660
     23 C19        -1.2262  -10.4914    0.4875 C.2       1 <0>         0.3035
     24 N2         -0.9793   -9.2571    0.8496 N.2       1 <0>        -0.6410
     25 C20        -2.6147  -12.3567   -2.5567 C.3       1 <0>        -0.1378
     26 C21        -3.7623  -11.6540   -0.4478 C.3       1 <0>        -0.1433
     27 O2         -1.5612  -13.7547    2.0404 O.3       1 <0>        -0.6282
     28 C22         0.1662  -11.9876    3.3613 C.ar      1 <0>        -0.0285
     29 C23         1.4213  -11.7531    2.8316 C.ar      1 <0>        -0.0946
     30 C24         2.5046  -12.4932    3.2666 C.ar      1 <0>        -0.1202
     31 C25         2.3326  -13.4687    4.2324 C.ar      1 <0>        -0.0484
     32 C26         1.0761  -13.7030    4.7622 C.ar      1 <0>        -0.1169
     33 C27        -0.0054  -12.9584    4.3304 C.ar      1 <0>        -0.0749
     34 Cl1         3.6926  -14.3990    4.7789 Cl        1 <0>        -0.0981
     35 C28        -0.4772   -9.2532    4.5043 C.1       1 <0>         0.2864
     36 N3         -0.2732   -8.8860    5.5598 N.1       1 <0>        -0.4750
     37 C29         2.0618   -3.1244    0.9485 C.3       1 <0>        -0.1096
     38 H2         -0.1371    1.8238    1.1034 H         1 <0>         0.0699
     39 H3          1.3439    1.7449    0.1192 H         1 <0>         0.0655
     40 H4         -0.2368    1.9694   -0.6677 H         1 <0>         0.0651
     41 H5          2.0046   -0.4251    0.9839 H         1 <0>         0.1236
     42 H6         -1.7789    0.1131   -0.9107 H         1 <0>         0.1235
     43 H7         -3.1803   -2.5558   -0.5486 H         1 <0>         0.0722
     44 H8         -2.7018   -1.8500   -2.1110 H         1 <0>         0.0681
     45 H9         -2.1606   -3.4877   -1.6711 H         1 <0>         0.0642
     46 H10        -0.4206   -4.5505   -1.1429 H         1 <0>         0.4090
     47 H11        -1.5220   -6.5582    0.3222 H         1 <0>         0.1198
     48 H12         0.2181   -6.8429    0.0783 H         1 <0>         0.1189
     49 H13        -0.8467  -13.4563   -0.8256 H         1 <0>         0.0784
     50 H14        -2.4705  -14.0350   -0.3793 H         1 <0>         0.0752
     51 H15        -0.5262  -11.0269   -1.4604 H         1 <0>         0.0809
     52 H16        -1.9293   -9.9299   -1.4519 H         1 <0>         0.0792
     53 H17        -3.2759  -13.2198   -2.6335 H         1 <0>         0.0551
     54 H18        -3.0601  -11.5101   -3.0792 H         1 <0>         0.0544
     55 H19        -1.6513  -12.5957   -3.0072 H         1 <0>         0.0541
     56 H20        -3.6145  -11.3936    0.6002 H         1 <0>         0.0680
     57 H21        -4.2062  -10.8083   -0.9732 H         1 <0>         0.0500
     58 H22        -4.4271  -12.5149   -0.5181 H         1 <0>         0.0505
     59 H23         1.5555  -10.9918    2.0774 H         1 <0>         0.1198
     60 H24         3.4851  -12.3101    2.8524 H         1 <0>         0.1205
     61 H25         0.9412  -14.4646    5.5159 H         1 <0>         0.1208
     62 H26        -0.9853  -13.1379    4.7473 H         1 <0>         0.1219
     63 H27         1.9304   -3.2625    2.0217 H         1 <0>         0.0852
     64 H28         1.9989   -4.0904    0.4475 H         1 <0>         0.0591
     65 H29         3.0377   -2.6784    0.7564 H         1 <0>         0.0606
@<TRIPOS>BOND
     1    1    2 1
     2    1   38 1
     3    1   39 1
     4    1   40 1
     5    2    7 ar
     6    2    3 ar
     7    3    4 ar
     8    3   41 1
     9    4    5 ar
    10    4   37 1
    11    5    6 ar
    12    5    9 1
    13    6    7 ar
    14    6    8 1
    15    7   42 1
    16    8   43 1
    17    8   44 1
    18    8   45 1
    19    9   10 am
    20    9   46 1
    21   10   11 2
    22   10   12 1
    23   12   13 1
    24   12   47 1
    25   12   48 1
    26   13   14 1
    27   14   24 1
    28   14   15 2
    29   15   16 1
    30   15   35 1
    31   16   17 1
    32   16   18 1
    33   16   28 1
    34   18   23 1
    35   18   19 2
    36   19   20 1
    37   19   27 1
    38   20   21 1
    39   20   49 1
    40   20   50 1
    41   21   22 1
    42   21   25 1
    43   21   26 1
    44   22   23 1
    45   22   51 1
    46   22   52 1
    47   23   24 2
    48   25   53 1
    49   25   54 1
    50   25   55 1
    51   26   56 1
    52   26   57 1
    53   26   58 1
    54   28   33 ar
    55   28   29 ar
    56   29   30 ar
    57   29   59 1
    58   30   31 ar
    59   30   60 1
    60   31   32 ar
    61   31   34 1
    62   32   33 ar
    63   32   61 1
    64   33   62 1
    65   35   36 3
    66   37   63 1
    67   37   64 1
    68   37   65 1
