@<TRIPOS>MOLECULE
ZINC12643071
   52    54     0     0     0
SMALL
USER_CHARGES
[(1S)-2-[2-(3,4-dimethoxyphenyl)ethylamino]-1-(4-fluorophenyl)-2-oxo-ethyl] 4,5-dichloroisothiazole-3-carboxylate
@<TRIPOS>ATOM
      1 C1          2.6355   12.2119    3.4158 C.3       1 <0>         0.0254
      2 O1          2.9954   11.0771    4.2062 O.3       1 <0>        -0.3064
      3 C2          3.1069    9.8854    3.5605 C.ar      1 <0>         0.1005
      4 C3          2.8746    9.8102    2.1965 C.ar      1 <0>        -0.1703
      5 C4          2.9935    8.5990    1.5408 C.ar      1 <0>        -0.1077
      6 C5          3.3330    7.4587    2.2450 C.ar      1 <0>        -0.0827
      7 C6          3.5661    7.5267    3.6059 C.ar      1 <0>        -0.1654
      8 C7          3.4542    8.7387    4.2682 C.ar      1 <0>         0.1018
      9 O2          3.6828    8.8073    5.6071 O.3       1 <0>        -0.3058
     10 C8          4.0346    7.5903    6.2683 C.3       1 <0>         0.0255
     11 C9          3.4552    6.1398    1.5263 C.3       1 <0>        -0.0871
     12 C10         2.1015    5.4267    1.5354 C.3       1 <0>         0.1259
     13 N1          2.2203    4.1445    0.8367 N.am      1 <0>        -0.7223
     14 C11         1.1462    3.3389    0.7195 C.2       1 <0>         0.5245
     15 O3          0.0813    3.6754    1.1924 O.2       1 <0>        -0.5039
     16 C12         1.2684    2.0200    0.0008 C.3       1 <0>         0.1195
     17 H1          2.0095    1.3991    0.5042 H         1 <0>         0.1255
     18 C13         1.6993    2.2617   -1.4229 C.ar      1 <0>        -0.1338
     19 C14         0.7689    2.6466   -2.3702 C.ar      1 <0>        -0.0587
     20 C15         1.1639    2.8741   -3.6749 C.ar      1 <0>        -0.1523
     21 C16         2.4899    2.7049   -4.0357 C.ar      1 <0>         0.1148
     22 C17         3.4198    2.3139   -3.0873 C.ar      1 <0>        -0.1514
     23 C18         3.0236    2.0929   -1.7819 C.ar      1 <0>        -0.0674
     24 F1          2.8760    2.9208   -5.3122 F         1 <0>        -0.1342
     25 O4         -0.0162    1.3432    0.0094 O.3       1 <0>        -0.2996
     26 C19         0.0021   -0.0041    0.0020 C.2       1 <0>         0.5415
     27 O5          1.0624   -0.5972   -0.0113 O.2       1 <0>        -0.4646
     28 C20        -1.2653   -0.7590    0.0101 C.2       1 <0>         0.0567
     29 C21        -1.2744   -2.1535   -0.0027 C.2       1 <0>        -0.0622
     30 C22        -2.5270   -2.6817    0.0113 C.2       1 <0>        -0.2010
     31 S1         -3.5238   -1.2692    0.0280 S.3       1 <0>         0.5512
     32 N2         -2.4258   -0.1401    0.0240 N.2       1 <0>        -0.4311
     33 Cl1        -3.0045   -4.3507    0.0068 Cl        1 <0>         0.0585
     34 Cl2         0.1688   -3.1180   -0.0287 Cl        1 <0>         0.0300
     35 H2          3.3860   12.3678    2.6409 H         1 <0>         0.0554
     36 H3          1.6646   12.0383    2.9517 H         1 <0>         0.0557
     37 H4          2.5812   13.0953    4.0521 H         1 <0>         0.1017
     38 H5          2.6049   10.6987    1.6449 H         1 <0>         0.1369
     39 H6          2.8164    8.5426    0.4769 H         1 <0>         0.1283
     40 H7          3.8359    6.6354    4.1528 H         1 <0>         0.1360
     41 H8          4.1890    7.7849    7.3296 H         1 <0>         0.1018
     42 H9          3.2308    6.8644    6.1452 H         1 <0>         0.0554
     43 H10         4.9523    7.1932    5.8345 H         1 <0>         0.0550
     44 H11         4.1963    5.5190    2.0297 H         1 <0>         0.0809
     45 H12         3.7668    6.3146    0.4965 H         1 <0>         0.0832
     46 H13         1.3605    6.0475    1.0319 H         1 <0>         0.0750
     47 H14         1.7899    5.2518    2.5651 H         1 <0>         0.0737
     48 H15         3.0720    3.8754    0.4585 H         1 <0>         0.4025
     49 H16        -0.2663    2.7735   -2.0897 H         1 <0>         0.1405
     50 H17         0.4376    3.1787   -4.4139 H         1 <0>         0.1414
     51 H18         4.4543    2.1813   -3.3676 H         1 <0>         0.1432
     52 H19         3.7488    1.7879   -1.0420 H         1 <0>         0.1396
@<TRIPOS>BOND
     1    1    2 1
     2    1   35 1
     3    1   36 1
     4    1   37 1
     5    2    3 1
     6    3    8 ar
     7    3    4 ar
     8    4    5 ar
     9    4   38 1
    10    5    6 ar
    11    5   39 1
    12    6    7 ar
    13    6   11 1
    14    7    8 ar
    15    7   40 1
    16    8    9 1
    17    9   10 1
    18   10   41 1
    19   10   42 1
    20   10   43 1
    21   11   12 1
    22   11   44 1
    23   11   45 1
    24   12   13 1
    25   12   46 1
    26   12   47 1
    27   13   14 am
    28   13   48 1
    29   14   15 2
    30   14   16 1
    31   16   17 1
    32   16   18 1
    33   16   25 1
    34   18   23 ar
    35   18   19 ar
    36   19   20 ar
    37   19   49 1
    38   20   21 ar
    39   20   50 1
    40   21   22 ar
    41   21   24 1
    42   22   23 ar
    43   22   51 1
    44   23   52 1
    45   25   26 1
    46   26   27 2
    47   26   28 1
    48   28   32 2
    49   28   29 1
    50   29   30 2
    51   29   34 1
    52   30   31 1
    53   30   33 1
    54   31   32 1
