@<TRIPOS>MOLECULE
ZINC08720411
   62    65     0     0     0
SMALL
USER_CHARGES
3-[1-[[4-amino-5-[(4-tert-butylphenoxy)methyl]-1,2,4-triazol-3-yl]sulfanyl]ethyl]-7,8-dimethyl-9-thia-2,4-diazabicyclo[4.3.0]nona-1,3,5,7-tetraen-5-amine
@<TRIPOS>ATOM
      1 C1         -1.5200   -1.4641   -0.2486 C.3       1 <0>        -0.1146
      2 C2         -2.6785   -0.5009   -0.2134 C.2       1 <0>        -0.0907
      3 C3         -3.9152   -0.9154   -0.5258 C.2       1 <0>        -0.1418
      4 S1         -4.9068    0.5546   -0.3398 S.3       1 <0>         0.1135
      5 C4         -3.6335    1.6861    0.1525 C.ar      1 <0>         0.1476
      6 C5         -2.4688    0.8873    0.1587 C.ar      1 <0>        -0.2364
      7 C6         -1.2709    1.5591    0.5272 C.ar      1 <0>         0.4944
      8 N1         -1.3212    2.8448    0.8362 N.ar      1 <0>        -0.5710
      9 C7         -2.4485    3.5325    0.8036 C.ar      1 <0>         0.3975
     10 N2         -3.5915    2.9649    0.4698 N.ar      1 <0>        -0.5012
     11 C8         -2.4295    4.9962    1.1618 C.3       1 <0>        -0.0174
     12 H1         -3.4478    5.3380    1.3474 H         1 <0>         0.1337
     13 C9         -1.8256    5.7963    0.0059 C.3       1 <0>        -0.1438
     14 S2         -1.4303    5.2399    2.6512 S.3       1 <0>         0.0921
     15 C10        -1.6988    6.9602    2.9216 C.2       1 <0>         0.1879
     16 N3         -2.4332    7.7610    2.1847 N.2       1 <0>        -0.2838
     17 N4         -2.4083    8.9494    2.6735 N.2       1 <0>        -0.2361
     18 C11        -1.6566    8.9798    3.7374 C.2       1 <0>         0.1406
     19 N5         -1.1776    7.7140    3.9337 N.pl3     1 <0>        -0.2978
     20 N6         -0.3496    7.2915    4.9347 N.3       1 <0>        -0.5828
     21 C12        -1.3684   10.1864    4.5930 C.3       1 <0>         0.1530
     22 O1         -0.2061   10.8545    4.0983 O.3       1 <0>        -0.3116
     23 C13         0.1931   11.9711    4.7621 C.ar      1 <0>         0.1208
     24 C14        -0.5225   12.4179    5.8635 C.ar      1 <0>        -0.2049
     25 C15        -0.1110   13.5497    6.5403 C.ar      1 <0>        -0.0796
     26 C16         1.0058   14.2441    6.1135 C.ar      1 <0>        -0.1014
     27 C17         1.7175   13.8042    5.0127 C.ar      1 <0>        -0.0744
     28 C18         1.3137   12.6694    4.3362 C.ar      1 <0>        -0.1428
     29 C19         1.4486   15.4823    6.8496 C.3       1 <0>        -0.0271
     30 C20         1.4299   16.6775    5.8946 C.3       1 <0>        -0.1403
     31 C21         0.4975   15.7484    8.0182 C.3       1 <0>        -0.1460
     32 C22         2.8678   15.2782    7.3834 C.3       1 <0>        -0.1398
     33 N7         -0.0690    0.8757    0.5678 N.pl3     1 <0>        -0.8344
     34 C23        -4.3607   -2.2955   -0.9357 C.3       1 <0>        -0.0699
     35 H2         -1.3361   -1.8479    0.7548 H         1 <0>         0.0758
     36 H3         -1.7562   -2.2922   -0.9168 H         1 <0>         0.0790
     37 H4         -0.6299   -0.9487   -0.6093 H         1 <0>         0.0728
     38 H5         -1.8119    6.8549    0.2650 H         1 <0>         0.0896
     39 H6         -0.8074    5.4544   -0.1797 H         1 <0>         0.0718
     40 H7         -2.4274    5.6495   -0.8910 H         1 <0>         0.0720
     41 H8          0.6186    7.3797    4.6645 H         1 <0>         0.3717
     42 H9         -0.5331    7.7921    5.7913 H         1 <0>         0.3763
     43 H10        -2.2197   10.8664    4.5607 H         1 <0>         0.1076
     44 H11        -1.1953    9.8696    5.6215 H         1 <0>         0.0796
     45 H12        -1.3978   11.8786    6.1943 H         1 <0>         0.1273
     46 H13        -0.6648   13.8950    7.4008 H         1 <0>         0.1314
     47 H14         2.5895   14.3483    4.6812 H         1 <0>         0.1298
     48 H15         1.8701   12.3259    3.4766 H         1 <0>         0.1305
     49 H16         0.4188   16.8229    5.5143 H         1 <0>         0.0570
     50 H17         1.7501   17.5731    6.4270 H         1 <0>         0.0594
     51 H18         2.1074   16.4880    5.0621 H         1 <0>         0.0570
     52 H19         0.5108   14.8969    8.6986 H         1 <0>         0.0582
     53 H20         0.8177   16.6439    8.5506 H         1 <0>         0.0598
     54 H21        -0.5136   15.8938    7.6379 H         1 <0>         0.0589
     55 H22         3.5454   15.0887    6.5509 H         1 <0>         0.0569
     56 H23         3.1880   16.1738    7.9159 H         1 <0>         0.0594
     57 H24         2.8811   14.4268    8.0638 H         1 <0>         0.0560
     58 H25         0.7677    1.3616    0.4983 H         1 <0>         0.4103
     59 H26        -0.0627   -0.0889    0.6697 H         1 <0>         0.4150
     60 H27        -5.4352   -2.2911   -1.1187 H         1 <0>         0.0771
     61 H28        -3.8383   -2.5906   -1.8457 H         1 <0>         0.0842
     62 H29        -4.1307   -3.0031   -0.1391 H         1 <0>         0.0839
@<TRIPOS>BOND
     1    1    2 1
     2    1   35 1
     3    1   36 1
     4    1   37 1
     5    2    6 1
     6    2    3 2
     7    3    4 1
     8    3   34 1
     9    4    5 1
    10    5   10 ar
    11    5    6 ar
    12    6    7 ar
    13    7    8 ar
    14    7   33 1
    15    8    9 ar
    16    9   10 ar
    17    9   11 1
    18   11   12 1
    19   11   13 1
    20   11   14 1
    21   13   38 1
    22   13   39 1
    23   13   40 1
    24   14   15 1
    25   15   19 1
    26   15   16 2
    27   16   17 1
    28   17   18 2
    29   18   19 1
    30   18   21 1
    31   19   20 1
    32   20   41 1
    33   20   42 1
    34   21   22 1
    35   21   43 1
    36   21   44 1
    37   22   23 1
    38   23   28 ar
    39   23   24 ar
    40   24   25 ar
    41   24   45 1
    42   25   26 ar
    43   25   46 1
    44   26   27 ar
    45   26   29 1
    46   27   28 ar
    47   27   47 1
    48   28   48 1
    49   29   30 1
    50   29   31 1
    51   29   32 1
    52   30   49 1
    53   30   50 1
    54   30   51 1
    55   31   52 1
    56   31   53 1
    57   31   54 1
    58   32   55 1
    59   32   56 1
    60   32   57 1
    61   33   58 1
    62   33   59 1
    63   34   60 1
    64   34   61 1
    65   34   62 1
