@<TRIPOS>MOLECULE
ZINC16907761
   46    48     0     0     0
SMALL
USER_CHARGES
(2R)-2-[4-[(E)-[2-[[4-chloro-3-(trifluoromethyl)phenyl]amino]-4-oxo-thiazol-5-ylidene]methyl]phenoxy]butanoic acid
@<TRIPOS>ATOM
      1 C1         -0.4083   -0.9836    3.3878 C.3       1 <0>        -0.1486
      2 C2          0.3281   -0.7014    2.0767 C.3       1 <0>        -0.1012
      3 C3         -0.4991   -1.2301    0.9032 C.3       1 <0>         0.0413
      4 H1         -0.7813   -2.2836    1.0465 H         1 <0>         0.0711
      5 C4          0.2800   -1.0632   -0.3760 C.2       1 <0>         0.4466
      6 O1         -0.1226   -0.3153   -1.2353 O.co2     1 <0>        -0.6104
      7 O2          1.4211   -1.7455   -0.5608 O.co2     1 <0>        -0.7681
      8 O3         -1.7228   -0.4975    0.8146 O.3       1 <0>        -0.3004
      9 C5         -2.7690   -1.1160    0.2100 C.ar      1 <0>         0.1743
     10 C6         -4.0178   -0.5051    0.1910 C.ar      1 <0>        -0.1719
     11 C7         -5.0810   -1.1256   -0.4250 C.ar      1 <0>        -0.0028
     12 C8         -4.9056   -2.3796   -1.0235 C.ar      1 <0>        -0.1254
     13 C9         -3.6467   -2.9928   -0.9967 C.ar      1 <0>        -0.0531
     14 C10        -2.5891   -2.3606   -0.3830 C.ar      1 <0>        -0.2186
     15 C11        -6.0375   -3.0492   -1.6762 C.2       1 <0>         0.0180
     16 C12        -6.9006   -2.3331   -2.4407 C.2       1 <0>        -0.2120
     17 C13        -6.8246   -0.9237   -2.8912 C.2       1 <0>         0.5272
     18 O4         -5.8883   -0.2008   -2.5897 O.2       1 <0>        -0.5012
     19 N1         -7.8210   -0.4946   -3.6339 N.2       1 <0>        -0.7144
     20 C14        -8.8418   -1.2679   -3.9684 C.2       1 <0>         0.4610
     21 S1         -8.4454   -2.8277   -3.1940 S.3       1 <0>        -0.1410
     22 N2         -9.9362   -0.9501   -4.7302 N.2       1 <0>        -0.5904
     23 C15       -10.1291    0.3660   -5.1622 C.ar      1 <0>         0.1847
     24 C16       -10.7356    0.6144   -6.3871 C.ar      1 <0>        -0.1135
     25 C17       -10.9252    1.9148   -6.8110 C.ar      1 <0>        -0.0935
     26 C18       -10.5113    2.9702   -6.0169 C.ar      1 <0>        -0.0505
     27 C19        -9.9074    2.7256   -4.7963 C.ar      1 <0>        -0.1555
     28 C20        -9.7200    1.4269   -4.3649 C.ar      1 <0>        -0.0981
     29 C21        -9.4589    3.8773   -3.9340 C.3       1 <0>         0.5078
     30 F1         -8.8820    3.3833   -2.7592 F         1 <0>        -0.1708
     31 F2         -8.5169    4.6421   -4.6304 F         1 <0>        -0.1754
     32 F3        -10.5617    4.6758   -3.6120 F         1 <0>        -0.1809
     33 Cl1       -10.7508    4.6038   -6.5532 Cl        1 <0>        -0.0823
     34 H2          0.1864   -0.6035    4.2315 H         1 <0>         0.0491
     35 H3         -0.5535   -2.0681    3.5007 H         1 <0>         0.0495
     36 H4         -1.3872   -0.4821    3.3738 H         1 <0>         0.0580
     37 H5          0.4733    0.3831    1.9638 H         1 <0>         0.0672
     38 H6          1.3070   -1.2029    2.0907 H         1 <0>         0.0864
     39 H7         -4.1530    0.4597    0.6570 H         1 <0>         0.1230
     40 H8         -6.0497   -0.6484   -0.4424 H         1 <0>         0.1226
     41 H9         -3.5060   -3.9599   -1.4564 H         1 <0>         0.1187
     42 H10        -1.6179   -2.8325   -0.3617 H         1 <0>         0.1266
     43 H11        -6.1860   -4.1313   -1.5456 H         1 <0>         0.1300
     44 H12       -11.0587   -0.2087   -7.0071 H         1 <0>         0.1329
     45 H13       -11.3966    2.1085   -7.7632 H         1 <0>         0.1323
     46 H14        -9.2523    1.2366   -3.4102 H         1 <0>         0.1517
@<TRIPOS>BOND
     1    1    2 1
     2    1   34 1
     3    1   35 1
     4    1   36 1
     5    2    3 1
     6    2   37 1
     7    2   38 1
     8    3    4 1
     9    3    5 1
    10    3    8 1
    11    5    6 2
    12    5    7 1
    13    8    9 1
    14    9   14 ar
    15    9   10 ar
    16   10   11 ar
    17   10   39 1
    18   11   12 ar
    19   11   40 1
    20   12   13 ar
    21   12   15 1
    22   13   14 ar
    23   13   41 1
    24   14   42 1
    25   15   16 2
    26   15   43 1
    27   16   21 1
    28   16   17 1
    29   17   18 2
    30   17   19 1
    31   19   20 2
    32   20   21 1
    33   20   22 1
    34   22   23 1
    35   23   28 ar
    36   23   24 ar
    37   24   25 ar
    38   24   44 1
    39   25   26 ar
    40   25   45 1
    41   26   27 ar
    42   26   33 1
    43   27   28 ar
    44   27   29 1
    45   28   46 1
    46   29   30 1
    47   29   31 1
    48   29   32 1
