@<TRIPOS>MOLECULE
ZINC35848577
   78    81     0     0     0
SMALL
USER_CHARGES

@<TRIPOS>ATOM
      1 C1        -10.1820   -2.8337    5.8423 C.3       1 <0>        -0.1531
      2 C2         -9.2969   -3.8693    5.1460 C.3       1 <0>        -0.1218
      3 C3         -7.8882   -3.2994    4.9683 C.3       1 <0>        -0.1318
      4 C4         -7.0030   -4.3350    4.2720 C.3       1 <0>         0.1203
      5 N1         -5.6542   -3.7893    4.1019 N.am      1 <0>        -0.7293
      6 C5         -4.6975   -4.5299    3.5082 C.2       1 <0>         0.5006
      7 O1         -4.9532   -5.6483    3.1147 O.2       1 <0>        -0.5142
      8 C6         -3.3099   -3.9685    3.3332 C.3       1 <0>         0.0950
      9 N2         -2.4624   -4.9602    2.6665 N.am      1 <0>        -0.5268
     10 C7         -1.6472   -5.8250    3.4120 C.2       1 <0>         0.3096
     11 C8         -1.5920   -7.1629    3.2177 C.2       1 <0>        -0.2199
     12 C9         -0.6763   -7.6911    4.1289 C.2       1 <0>         0.1346
     13 N3         -0.1989   -6.7047    4.8494 N.2       1 <0>        -0.2567
     14 N4         -0.7978   -5.5104    4.4186 N.pl3     1 <0>        -0.3231
     15 C10        -0.5609   -4.2293    4.9352 C.ar      1 <0>         0.1238
     16 C11        -0.1433   -3.2062    4.0942 C.ar      1 <0>        -0.1036
     17 C12         0.0895   -1.9450    4.6062 C.ar      1 <0>        -0.1117
     18 C13        -0.0925   -1.7003    5.9552 C.ar      1 <0>        -0.0661
     19 C14        -0.5083   -2.7168    6.7951 C.ar      1 <0>        -0.1102
     20 C15        -0.7486   -3.9790    6.2878 C.ar      1 <0>        -0.0576
     21 C16        -1.2077   -5.0849    7.2028 C.3       1 <0>        -0.1114
     22 C17         0.1633   -0.3231    6.5109 C.3       1 <0>        -0.1193
     23 C18        -0.3012   -9.1445    4.2623 C.3       1 <0>         0.0182
     24 C19         0.5731   -9.5565    3.0762 C.3       1 <0>        -0.2067
     25 C20         0.4744   -9.3536    5.5645 C.3       1 <0>        -0.1326
     26 C21        -1.5702   -9.9991    4.2816 C.3       1 <0>        -0.2501
     27 C22        -2.3977   -7.9174    2.1914 C.3       1 <0>         0.0731
     28 H1         -3.4360   -7.5876    2.2265 H         1 <0>         0.1206
     29 S1         -1.7002   -7.5747    0.5356 S.3       1 <0>        -0.1925
     30 C23        -1.3348   -5.7908    0.6436 C.3       1 <0>        -0.1196
     31 C24        -2.4521   -5.0656    1.3337 C.2       1 <0>         0.5368
     32 O2         -3.3468   -4.5702    0.6817 O.2       1 <0>        -0.4864
     33 C25        -2.3262   -9.3951    2.4786 C.ar      1 <0>        -0.1171
     34 C26        -1.2690  -10.1430    1.9946 C.ar      1 <0>        -0.0623
     35 C27        -1.2034  -11.4982    2.2580 C.ar      1 <0>        -0.1803
     36 C28        -2.1949  -12.1058    3.0059 C.ar      1 <0>        -0.0866
     37 C29        -3.2513  -11.3580    3.4905 C.ar      1 <0>        -0.1678
     38 C30        -3.3147  -10.0015    3.2306 C.ar      1 <0>         0.0094
     39 C31        -4.4638   -9.1850    3.7635 C.3       1 <0>        -0.1308
     40 H2        -10.2297   -1.9296    5.2353 H         1 <0>         0.0549
     41 H3        -11.1856   -3.2398    5.9688 H         1 <0>         0.0572
     42 H4         -9.7613   -2.5939    6.8188 H         1 <0>         0.0543
     43 H5         -9.2492   -4.7734    5.7529 H         1 <0>         0.0651
     44 H6         -9.7176   -4.1091    4.1694 H         1 <0>         0.0660
     45 H7         -7.9359   -2.3953    4.3614 H         1 <0>         0.0700
     46 H8         -7.4674   -3.0596    5.9449 H         1 <0>         0.0688
     47 H9         -6.9553   -5.2391    4.8790 H         1 <0>         0.0676
     48 H10        -7.4238   -4.5748    3.2955 H         1 <0>         0.0696
     49 H11        -5.4496   -2.8948    4.4167 H         1 <0>         0.4002
     50 H12        -3.3576   -3.0644    2.7263 H         1 <0>         0.1193
     51 H13        -2.8892   -3.7288    4.3098 H         1 <0>         0.1103
     52 H14        -0.0003   -3.3968    3.0408 H         1 <0>         0.1254
     53 H15         0.4143   -1.1489    3.9526 H         1 <0>         0.1344
     54 H16        -0.6492   -2.5229    7.8481 H         1 <0>         0.1341
     55 H17        -0.3470   -5.6717    7.5239 H         1 <0>         0.0823
     56 H18        -1.6996   -4.6542    8.0750 H         1 <0>         0.0693
     57 H19        -1.9085   -5.7288    6.6714 H         1 <0>         0.0628
     58 H20        -0.7548    0.2629    6.4666 H         1 <0>         0.0763
     59 H21         0.4927   -0.4046    7.5467 H         1 <0>         0.0711
     60 H22         0.9369    0.1687    5.9212 H         1 <0>         0.0712
     61 H23         1.5583   -9.8524    3.4365 H         1 <0>         0.0586
     62 H24         0.1092  -10.3951    2.5569 H         1 <0>         0.1312
     63 H25         0.6745   -8.7156    2.3902 H         1 <0>         0.0629
     64 H26        -0.1484   -9.0601    6.4095 H         1 <0>         0.0527
     65 H27         0.7457  -10.4049    5.6609 H         1 <0>         0.0599
     66 H28         1.3785   -8.7448    5.5507 H         1 <0>         0.0572
     67 H29        -1.6933  -10.4886    3.3156 H         1 <0>         0.1626
     68 H30        -1.4879  -10.7539    5.0636 H         1 <0>         0.0479
     69 H31        -2.4332   -9.3634    4.4795 H         1 <0>         0.0737
     70 H32        -0.4106   -5.6470    1.2032 H         1 <0>         0.1039
     71 H33        -1.2111   -5.3882   -0.3618 H         1 <0>         0.1427
     72 H34        -0.4945   -9.6684    1.4104 H         1 <0>         0.1488
     73 H35        -0.3779  -12.0827    1.8793 H         1 <0>         0.1341
     74 H36        -2.1441  -13.1650    3.2111 H         1 <0>         0.1272
     75 H37        -4.0260  -11.8326    4.0744 H         1 <0>         0.1270
     76 H38        -5.2957   -9.2265    3.0605 H         1 <0>         0.0798
     77 H39        -4.7805   -9.5880    4.7254 H         1 <0>         0.0704
     78 H40        -4.1462   -8.1500    3.8899 H         1 <0>         0.0767
@<TRIPOS>BOND
     1    1    2 1
     2    1   40 1
     3    1   41 1
     4    1   42 1
     5    2    3 1
     6    2   43 1
     7    2   44 1
     8    3    4 1
     9    3   45 1
    10    3   46 1
    11    4    5 1
    12    4   47 1
    13    4   48 1
    14    5    6 am
    15    5   49 1
    16    6    7 2
    17    6    8 1
    18    8    9 1
    19    8   50 1
    20    8   51 1
    21    9   31 am
    22    9   10 1
    23   10   14 1
    24   10   11 2
    25   11   12 1
    26   11   27 1
    27   12   13 2
    28   12   23 1
    29   13   14 1
    30   14   15 1
    31   15   20 ar
    32   15   16 ar
    33   16   17 ar
    34   16   52 1
    35   17   18 ar
    36   17   53 1
    37   18   19 ar
    38   18   22 1
    39   19   20 ar
    40   19   54 1
    41   20   21 1
    42   21   55 1
    43   21   56 1
    44   21   57 1
    45   22   58 1
    46   22   59 1
    47   22   60 1
    48   23   24 1
    49   23   25 1
    50   23   26 1
    51   24   61 1
    52   24   62 1
    53   24   63 1
    54   25   64 1
    55   25   65 1
    56   25   66 1
    57   26   67 1
    58   26   68 1
    59   26   69 1
    60   27   28 1
    61   27   29 1
    62   27   33 1
    63   29   30 1
    64   30   31 1
    65   30   70 1
    66   30   71 1
    67   31   32 2
    68   33   38 ar
    69   33   34 ar
    70   34   35 ar
    71   34   72 1
    72   35   36 ar
    73   35   73 1
    74   36   37 ar
    75   36   74 1
    76   37   38 ar
    77   37   75 1
    78   38   39 1
    79   39   76 1
    80   39   77 1
    81   39   78 1
