@<TRIPOS>MOLECULE
ZINC35621577
   69    73     0     0     0
SMALL
USER_CHARGES

@<TRIPOS>ATOM
      1 C1          0.0373    1.5009   -0.0863 C.3       1 <0>        -0.1428
      2 C2          0.0798   -0.0262   -0.1711 C.3       1 <0>        -0.0369
      3 C3         -1.3241   -0.5715   -0.1173 C.2       1 <0>         0.1328
      4 C4         -2.0280   -0.9266    1.0538 C.2       1 <0>        -0.3592
      5 C5         -3.2783   -1.3806    0.6585 C.2       1 <0>         0.4428
      6 N1         -3.3217   -1.3006   -0.6967 N.pl3     1 <0>        -0.3883
      7 N2         -2.0981   -0.7906   -1.1451 N.2       1 <0>        -0.3557
      8 C6         -4.4072   -1.6615   -1.5063 C.ar      1 <0>         0.2081
      9 C7         -5.0496   -2.8766   -1.3077 C.ar      1 <0>        -0.1184
     10 C8         -6.1192   -3.2292   -2.1068 C.ar      1 <0>        -0.1106
     11 C9         -6.5508   -2.3736   -3.1041 C.ar      1 <0>        -0.1421
     12 C10        -5.9133   -1.1632   -3.3043 C.ar      1 <0>        -0.0849
     13 C11        -4.8461   -0.8026   -2.5047 C.ar      1 <0>        -0.0965
     14 C12        -4.1557    0.5197   -2.7195 C.3       1 <0>        -0.0949
     15 C13        -6.3867   -0.2339   -4.3920 C.3       1 <0>        -0.1072
     16 O1         -4.2692   -1.8215    1.4715 O.3       1 <0>        -0.6989
     17 C14        -1.5274   -0.8329    2.4398 C.2       1 <0>        -0.0776
     18 C15        -1.6474    0.2381    3.2850 C.2       1 <0>         0.1468
     19 C16        -0.9925   -0.1519    4.5488 C.2       1 <0>         0.5757
     20 O2         -0.8971    0.5419    5.5415 O.2       1 <0>        -0.4691
     21 N3         -0.5192   -1.4033    4.4178 N.am      1 <0>        -0.5312
     22 C17        -0.8027   -1.8791    3.1927 C.2       1 <0>         0.5614
     23 O3         -0.5106   -2.9811    2.7741 O.2       1 <0>        -0.4606
     24 C18         0.1660   -2.1119    5.4162 C.ar      1 <0>         0.1493
     25 C19         0.3936   -1.5235    6.6527 C.ar      1 <0>        -0.1432
     26 C20         1.0683   -2.2199    7.6374 C.ar      1 <0>        -0.1515
     27 C21         1.5190   -3.5070    7.3925 C.ar      1 <0>         0.0808
     28 C22         1.2919   -4.0996    6.1541 C.ar      1 <0>         0.1207
     29 C23         0.6110   -3.4031    5.1694 C.ar      1 <0>        -0.1959
     30 O4          1.7337   -5.3628    5.9127 O.3       1 <0>        -0.3048
     31 C24         1.4652   -5.9079    4.6193 C.3       1 <0>         0.0238
     32 O5          2.1839   -4.1912    8.3626 O.3       1 <0>        -0.3072
     33 C25         2.3820   -3.5213    9.6092 C.3       1 <0>         0.0265
     34 N4         -2.2634    1.4509    3.0077 N.pl3     1 <0>        -0.5778
     35 C26        -2.9148    1.8110    1.7398 C.3       1 <0>         0.1184
     36 C27        -3.4313    3.2580    1.8848 C.3       1 <0>        -0.1348
     37 C28        -2.5463    3.8304    3.0234 C.3       1 <0>        -0.1310
     38 C29        -2.3783    2.5887    3.9380 C.3       1 <0>         0.1084
     39 H1          1.0527    1.8953   -0.1252 H         1 <0>         0.0500
     40 H2         -0.5380    1.8954   -0.9238 H         1 <0>         0.0542
     41 H3         -0.4329    1.7998    0.8505 H         1 <0>         0.0590
     42 H4          0.5501   -0.3252   -1.1078 H         1 <0>         0.0665
     43 H5          0.6551   -0.4207    0.6665 H         1 <0>         0.0667
     44 H6         -4.7128   -3.5452   -0.5293 H         1 <0>         0.1245
     45 H7         -6.6190   -4.1742   -1.9531 H         1 <0>         0.1189
     46 H8         -7.3873   -2.6518   -3.7280 H         1 <0>         0.1153
     47 H9         -3.3730    0.4034   -3.4692 H         1 <0>         0.0669
     48 H10        -4.8813    1.2568   -3.0631 H         1 <0>         0.0522
     49 H11        -3.7133    0.8551   -1.7815 H         1 <0>         0.0692
     50 H12        -7.1446    0.4389   -3.9907 H         1 <0>         0.0646
     51 H13        -5.5441    0.3487   -4.7644 H         1 <0>         0.0655
     52 H14        -6.8139   -0.8172   -5.2077 H         1 <0>         0.0609
     53 H15         0.0434   -0.5202    6.8453 H         1 <0>         0.1581
     54 H16         1.2447   -1.7602    8.5986 H         1 <0>         0.1401
     55 H17         0.4301   -3.8629    4.2090 H         1 <0>         0.1710
     56 H18         0.3883   -5.9377    4.4540 H         1 <0>         0.0590
     57 H19         1.9326   -5.2836    3.8578 H         1 <0>         0.0583
     58 H20         1.8701   -6.9182    4.5596 H         1 <0>         0.0998
     59 H21         2.9588   -2.6112    9.4450 H         1 <0>         0.0535
     60 H22         1.4148   -3.2654   10.0419 H         1 <0>         0.0536
     61 H23         2.9234   -4.1764   10.2917 H         1 <0>         0.0975
     62 H24        -2.1943    1.7546    0.9238 H         1 <0>         0.0806
     63 H25        -3.7495    1.1370    1.5473 H         1 <0>         0.0712
     64 H26        -3.2797    3.8160    0.9608 H         1 <0>         0.0798
     65 H27        -4.4826    3.2651    2.1728 H         1 <0>         0.0727
     66 H28        -1.5845    4.1690    2.6380 H         1 <0>         0.0756
     67 H29        -3.0595    4.6350    3.5502 H         1 <0>         0.0801
     68 H30        -3.2505    2.4670    4.5803 H         1 <0>         0.0621
     69 H31        -1.4735    2.6803    4.5389 H         1 <0>         0.0783
@<TRIPOS>BOND
     1    1    2 1
     2    1   39 1
     3    1   40 1
     4    1   41 1
     5    2    3 1
     6    2   42 1
     7    2   43 1
     8    3    7 2
     9    3    4 1
    10    4    5 2
    11    4   17 1
    12    5    6 1
    13    5   16 1
    14    6    7 1
    15    6    8 1
    16    8   13 ar
    17    8    9 ar
    18    9   10 ar
    19    9   44 1
    20   10   11 ar
    21   10   45 1
    22   11   12 ar
    23   11   46 1
    24   12   13 ar
    25   12   15 1
    26   13   14 1
    27   14   47 1
    28   14   48 1
    29   14   49 1
    30   15   50 1
    31   15   51 1
    32   15   52 1
    33   17   22 1
    34   17   18 2
    35   18   19 1
    36   18   34 1
    37   19   20 2
    38   19   21 am
    39   21   22 am
    40   21   24 1
    41   22   23 2
    42   24   29 ar
    43   24   25 ar
    44   25   26 ar
    45   25   53 1
    46   26   27 ar
    47   26   54 1
    48   27   28 ar
    49   27   32 1
    50   28   29 ar
    51   28   30 1
    52   29   55 1
    53   30   31 1
    54   31   56 1
    55   31   57 1
    56   31   58 1
    57   32   33 1
    58   33   59 1
    59   33   60 1
    60   33   61 1
    61   34   38 1
    62   34   35 1
    63   35   36 1
    64   35   62 1
    65   35   63 1
    66   36   37 1
    67   36   64 1
    68   36   65 1
    69   37   38 1
    70   37   66 1
    71   37   67 1
    72   38   68 1
    73   38   69 1
