@<TRIPOS>MOLECULE
ZINC39835744
   57    60     0     0     0
SMALL
USER_CHARGES

@<TRIPOS>ATOM
      1 C1          1.1384   -1.5431   -2.0865 C.3       1 <0>        -0.1180
      2 C2          0.0331   -1.8521   -1.1098 C.ar      1 <0>        -0.0729
      3 C3         -1.2840   -1.6172   -1.4599 C.ar      1 <0>        -0.1087
      4 C4         -2.3002   -1.8996   -0.5662 C.ar      1 <0>        -0.1051
      5 C5         -2.0022   -2.4170    0.6797 C.ar      1 <0>        -0.0733
      6 C6         -0.6817   -2.6535    1.0334 C.ar      1 <0>         0.0856
      7 C7          0.3361   -2.3749    0.1322 C.ar      1 <0>        -0.0995
      8 O1         -0.3859   -3.1624    2.2583 O.3       1 <0>        -0.2189
      9 C8         -0.2332   -2.2962    3.2857 C.2       1 <0>         0.4685
     10 C9          0.1156   -2.7709    4.5694 C.2       1 <0>        -0.3434
     11 C10         0.2659   -1.8295    5.6167 C.2       1 <0>         0.5448
     12 O2          0.5664   -2.1946    6.7402 O.2       1 <0>        -0.5130
     13 N1          0.0709   -0.5202    5.3490 N.am      1 <0>        -0.4317
     14 C11         0.2131    0.3940    6.3499 C.2       1 <0>         0.1119
     15 C12         0.0249    1.7122    6.1150 C.2       1 <0>        -0.1711
     16 C13        -0.3208    2.1549    4.8311 C.2       1 <0>        -0.0174
     17 C14        -0.4654    1.2480    3.8232 C.2       1 <0>        -0.1415
     18 C15        -0.2652   -0.1187    4.0862 C.2       1 <0>         0.4368
     19 N2         -0.4042   -0.9983    3.0933 N.2       1 <0>        -0.5721
     20 C16         0.3096   -4.1531    4.8035 C.2       1 <0>         0.1500
     21 C17         1.2212   -4.8488    4.0641 C.2       1 <0>        -0.2393
     22 C18         2.1655   -4.3737    3.1090 C.2       1 <0>         0.5430
     23 O3          2.2472   -3.1870    2.8454 O.2       1 <0>        -0.4602
     24 N3          2.9505   -5.2571    2.5172 N.am      1 <0>        -0.5177
     25 C19         2.8600   -6.5736    2.8101 C.2       1 <0>         0.2968
     26 S1          3.7653   -7.8796    2.1733 S.2       1 <0>        -0.3478
     27 S2          1.5611   -6.6035    4.0362 S.3       1 <0>         0.0313
     28 C20         3.9326   -4.8030    1.5295 C.3       1 <0>         0.1114
     29 C21         5.2516   -4.4785    2.2337 C.3       1 <0>        -0.1918
     30 C22         6.2618   -4.0113    1.2176 C.2       1 <0>         0.5048
     31 O4          5.9552   -3.9442    0.0395 O.co2     1 <0>        -0.6932
     32 O5          7.3856   -3.7006    1.5738 O.co2     1 <0>        -0.6957
     33 C23        -3.1104   -2.7236    1.6538 C.3       1 <0>        -0.0568
     34 C24        -3.8873   -1.4422    1.9623 C.3       1 <0>        -0.1398
     35 C25        -4.0562   -3.7584    1.0409 C.3       1 <0>        -0.1412
     36 H1          1.3325   -2.4196   -2.7047 H         1 <0>         0.0754
     37 H2          0.8392   -0.7095   -2.7219 H         1 <0>         0.0680
     38 H3          2.0427   -1.2767   -1.5395 H         1 <0>         0.0729
     39 H4         -1.5190   -1.2122   -2.4331 H         1 <0>         0.1265
     40 H5         -3.3280   -1.7153   -0.8421 H         1 <0>         0.1274
     41 H6          1.3645   -2.5623    0.4035 H         1 <0>         0.1329
     42 H7          0.4790    0.0614    7.3424 H         1 <0>         0.1867
     43 H8          0.1408    2.4249    6.9181 H         1 <0>         0.1638
     44 H9         -0.4720    3.2073    4.6414 H         1 <0>         0.1574
     45 H10        -0.7316    1.5772    2.8296 H         1 <0>         0.1699
     46 H11        -0.2640   -4.6572    5.5672 H         1 <0>         0.1496
     47 H12         4.0977   -5.5895    0.7932 H         1 <0>         0.1118
     48 H13         3.5584   -3.9097    1.0293 H         1 <0>         0.0998
     49 H14         5.0864   -3.6919    2.9700 H         1 <0>         0.0591
     50 H15         5.6257   -5.3717    2.7339 H         1 <0>         0.0677
     51 H16        -2.6847   -3.1212    2.5751 H         1 <0>         0.0719
     52 H17        -3.2134   -0.7050    2.3989 H         1 <0>         0.0572
     53 H18        -4.3130   -1.0446    1.0410 H         1 <0>         0.0579
     54 H19        -4.6889   -1.6639    2.6669 H         1 <0>         0.0552
     55 H20        -3.5028   -4.6713    0.8211 H         1 <0>         0.0576
     56 H21        -4.8578   -3.9802    1.7455 H         1 <0>         0.0583
     57 H22        -4.4820   -3.3608    0.1196 H         1 <0>         0.0578
@<TRIPOS>BOND
     1    1    2 1
     2    1   36 1
     3    1   37 1
     4    1   38 1
     5    2    7 ar
     6    2    3 ar
     7    3    4 ar
     8    3   39 1
     9    4    5 ar
    10    4   40 1
    11    5    6 ar
    12    5   33 1
    13    6    7 ar
    14    6    8 1
    15    7   41 1
    16    8    9 1
    17    9   19 1
    18    9   10 2
    19   10   11 1
    20   10   20 1
    21   11   12 2
    22   11   13 am
    23   13   18 1
    24   13   14 1
    25   14   15 2
    26   14   42 1
    27   15   16 1
    28   15   43 1
    29   16   17 2
    30   16   44 1
    31   17   18 1
    32   17   45 1
    33   18   19 2
    34   20   21 2
    35   20   46 1
    36   21   27 1
    37   21   22 1
    38   22   23 2
    39   22   24 am
    40   24   25 1
    41   24   28 1
    42   25   26 2
    43   25   27 1
    44   28   29 1
    45   28   47 1
    46   28   48 1
    47   29   30 1
    48   29   49 1
    49   29   50 1
    50   30   31 2
    51   30   32 1
    52   33   34 1
    53   33   35 1
    54   33   51 1
    55   34   52 1
    56   34   53 1
    57   34   54 1
    58   35   55 1
    59   35   56 1
    60   35   57 1
