@<TRIPOS>MOLECULE
ZINC20683025
   65    68     0     0     0
SMALL
USER_CHARGES
ethyl 2-[(4E)-4-[(3-chloro-4-methyl-phenyl)carbamothioylhydrazono]spiro[chroman-2,1'-cyclohexane]-6-yl]oxyacetate
@<TRIPOS>ATOM
      1 C1          9.8324    8.1487    0.6033 C.3       1 <0>        -0.1561
      2 C2          8.4566    7.5038    0.4239 C.3       1 <0>         0.0619
      3 O1          8.5979    6.0587    0.4076 O.3       1 <0>        -0.3544
      4 C3          7.4754    5.3383    0.2568 C.2       1 <0>         0.4640
      5 O2          6.4100    5.8967    0.1422 O.2       1 <0>        -0.4820
      6 C4          7.5439    3.8331    0.2304 C.3       1 <0>         0.0647
      7 O3          6.2292    3.2994    0.0609 O.3       1 <0>        -0.2917
      8 C5          6.1138    1.9452    0.0159 C.ar      1 <0>         0.0938
      9 C6          7.2448    1.1478    0.1329 C.ar      1 <0>        -0.1488
     10 C7          7.1414   -0.2292    0.0857 C.ar      1 <0>        -0.1095
     11 C8          5.9025   -0.8296   -0.0796 C.ar      1 <0>         0.1387
     12 C9          4.7603   -0.0262   -0.1922 C.ar      1 <0>        -0.0942
     13 C10         4.8684    1.3616   -0.1467 C.ar      1 <0>        -0.0682
     14 C11         3.4409   -0.6752   -0.3604 C.2       1 <0>         0.1836
     15 N1          2.3324   -0.0110   -0.2381 N.2       1 <0>        -0.2746
     16 N2          1.1034   -0.6625   -0.4050 N.pl3     1 <0>        -0.5438
     17 C12        -0.0476    0.0272   -0.2781 C.2       1 <0>         0.5901
     18 S1         -1.5494   -0.7689   -0.4820 S.2       1 <0>        -0.5980
     19 N3         -0.0162    1.3436    0.0094 N.pl3     1 <0>        -0.6252
     20 C13        -1.2024    2.0843    0.0254 C.ar      1 <0>         0.1326
     21 C14        -1.4218    3.0256    1.0232 C.ar      1 <0>        -0.1127
     22 C15        -2.5936    3.7561    1.0365 C.ar      1 <0>        -0.1028
     23 C16        -3.5492    3.5514    0.0581 C.ar      1 <0>        -0.0694
     24 C17        -3.3344    2.6146   -0.9375 C.ar      1 <0>        -0.0284
     25 C18        -2.1607    1.8844   -0.9593 C.ar      1 <0>        -0.0639
     26 Cl1        -4.5364    2.3612   -2.1641 Cl        1 <0>        -0.0587
     27 C19        -4.8268    4.3504    0.0759 C.3       1 <0>        -0.1285
     28 C20         3.4519   -2.1602   -0.6773 C.3       1 <0>        -0.1521
     29 C21         4.5595   -2.7992    0.1653 C.3       1 <0>         0.1390
     30 O4          5.8090   -2.1816   -0.1388 O.3       1 <0>        -0.2925
     31 C22         4.2355   -2.6044    1.6474 C.3       1 <0>        -0.1458
     32 C23         5.3304   -3.2513    2.4982 C.3       1 <0>        -0.1157
     33 C24         5.4062   -4.7464    2.1826 C.3       1 <0>        -0.1227
     34 C25         5.7322   -4.9388    0.7002 C.3       1 <0>        -0.1193
     35 C26         4.6355   -4.2942   -0.1501 C.3       1 <0>        -0.1064
     36 H1          9.7254    9.2434    0.6157 H         1 <0>         0.0848
     37 H2         10.4871    7.8536   -0.2300 H         1 <0>         0.0692
     38 H3         10.2738    7.8127    1.5532 H         1 <0>         0.0692
     39 H4          7.8019    7.7989    1.2572 H         1 <0>         0.0748
     40 H5          8.0152    7.8398   -0.5260 H         1 <0>         0.0749
     41 H6          8.1815    3.5097   -0.6056 H         1 <0>         0.1109
     42 H7          7.9683    3.4687    1.1775 H         1 <0>         0.1107
     43 H8          8.2134    1.6079    0.2613 H         1 <0>         0.1421
     44 H9          8.0278   -0.8394    0.1775 H         1 <0>         0.1450
     45 H10         3.9867    1.9786   -0.2375 H         1 <0>         0.1442
     46 H11         1.0778   -1.7369   -0.6396 H         1 <0>         0.4415
     47 H12         0.9424    1.8354    0.2314 H         1 <0>         0.4459
     48 H13        -0.6764    3.1858    1.7882 H         1 <0>         0.1312
     49 H14        -2.7642    4.4879    1.8122 H         1 <0>         0.1377
     50 H15        -1.9913    1.1562   -1.7387 H         1 <0>         0.1521
     51 H16        -5.4583    4.0510   -0.7735 H         1 <0>         0.0769
     52 H17        -4.5903    5.4218   -0.0027 H         1 <0>         0.0761
     53 H18        -5.3643    4.1616    1.0169 H         1 <0>         0.0766
     54 H19         2.4744   -2.5964   -0.4238 H         1 <0>         0.0947
     55 H20         3.6511   -2.3049   -1.7494 H         1 <0>         0.1155
     56 H21         4.1832   -1.5291    1.8730 H         1 <0>         0.0688
     57 H22         3.2677   -3.0745    1.8760 H         1 <0>         0.0795
     58 H23         6.2978   -2.7795    2.2713 H         1 <0>         0.0699
     59 H24         5.0961   -3.1133    3.5641 H         1 <0>         0.0659
     60 H25         6.1935   -5.2108    2.7945 H         1 <0>         0.0669
     61 H26         4.4390   -5.2186    2.4096 H         1 <0>         0.0626
     62 H27         6.6987   -4.4654    0.4729 H         1 <0>         0.0739
     63 H28         5.7882   -6.0137    0.4736 H         1 <0>         0.0688
     64 H29         3.6687   -4.7667    0.0782 H         1 <0>         0.0874
     65 H30         4.8686   -4.4327   -1.2162 H         1 <0>         0.0794
@<TRIPOS>BOND
     1    1    2 1
     2    1   36 1
     3    1   37 1
     4    1   38 1
     5    2    3 1
     6    2   39 1
     7    2   40 1
     8    3    4 1
     9    4    5 2
    10    4    6 1
    11    6    7 1
    12    6   41 1
    13    6   42 1
    14    7    8 1
    15    8   13 ar
    16    8    9 ar
    17    9   10 ar
    18    9   43 1
    19   10   11 ar
    20   10   44 1
    21   11   30 1
    22   11   12 ar
    23   12   13 ar
    24   12   14 1
    25   13   45 1
    26   14   15 2
    27   14   28 1
    28   15   16 1
    29   16   17 1
    30   16   46 1
    31   17   18 2
    32   17   19 1
    33   19   20 1
    34   19   47 1
    35   20   25 ar
    36   20   21 ar
    37   21   22 ar
    38   21   48 1
    39   22   23 ar
    40   22   49 1
    41   23   24 ar
    42   23   27 1
    43   24   25 ar
    44   24   26 1
    45   25   50 1
    46   27   51 1
    47   27   52 1
    48   27   53 1
    49   28   29 1
    50   28   54 1
    51   28   55 1
    52   29   35 1
    53   29   30 1
    54   29   31 1
    55   31   32 1
    56   31   56 1
    57   31   57 1
    58   32   33 1
    59   32   58 1
    60   32   59 1
    61   33   34 1
    62   33   60 1
    63   33   61 1
    64   34   35 1
    65   34   62 1
    66   34   63 1
    67   35   64 1
    68   35   65 1
