@<TRIPOS>MOLECULE
ZINC09531344
   57    61     0     0     0
SMALL
USER_CHARGES
N-(1-adamantylcarbamoyl)-2-[[5-(4-chlorophenyl)-4-methyl-1,2,4-triazol-3-yl]sulfanyl]acetamide
@<TRIPOS>ATOM
      1 C1        -11.9173    1.3972    5.4386 C.3       1 <0>         0.0610
      2 N1        -11.9942    0.6429    4.1851 N.pl3     1 <0>        -0.4566
      3 C2        -13.1258    0.1392    3.5861 C.2       1 <0>         0.2246
      4 N2        -12.7428   -0.4642    2.4851 N.2       1 <0>        -0.2615
      5 N3        -11.4680   -0.3693    2.3535 N.2       1 <0>        -0.2888
      6 C3        -10.9577    0.2932    3.3674 C.2       1 <0>         0.1441
      7 S1         -9.2545    0.6671    3.6207 S.3       1 <0>         0.0939
      8 C4         -8.5398   -0.1119    2.1516 C.3       1 <0>        -0.1509
      9 C5         -7.0459    0.0859    2.1546 C.2       1 <0>         0.5401
     10 O1         -6.5167    0.6935    3.0604 O.2       1 <0>        -0.4495
     11 N4         -6.2981   -0.4126    1.1502 N.am      1 <0>        -0.6866
     12 C6         -4.9620   -0.2357    1.1529 C.2       1 <0>         0.6964
     13 O2         -4.4315    0.3734    2.0611 O.2       1 <0>        -0.5188
     14 N5         -4.2142   -0.7342    0.1486 N.am      1 <0>        -0.7307
     15 C7         -2.7618   -0.5419    0.1515 C.3       1 <0>         0.1997
     16 C8         -2.1577   -1.2004   -1.0904 C.3       1 <0>        -0.1140
     17 C9         -0.6409   -0.9996   -1.0873 C.3       1 <0>        -0.0799
     18 C10        -0.0446   -1.6372    0.1692 C.3       1 <0>        -0.1119
     19 C11        -0.6488   -0.9787    1.4111 C.3       1 <0>        -0.0822
     20 C12        -2.1655   -1.1795    1.4080 C.3       1 <0>        -0.1241
     21 C13        -0.3325    0.5182    1.3995 C.3       1 <0>        -0.1103
     22 C14        -0.9288    1.1558    0.1430 C.3       1 <0>        -0.0822
     23 C15        -0.3247    0.4973   -1.0988 C.3       1 <0>        -0.1119
     24 C16        -2.4456    0.9550    0.1400 C.3       1 <0>        -0.1242
     25 C17       -14.5115    0.2557    4.0878 C.ar      1 <0>        -0.0139
     26 C18       -15.4952   -0.6278    3.6404 C.ar      1 <0>        -0.0607
     27 C19       -16.7851   -0.5178    4.1165 C.ar      1 <0>        -0.1055
     28 C20       -17.1076    0.4738    5.0277 C.ar      1 <0>        -0.0217
     29 C21       -16.1373    1.3568    5.4709 C.ar      1 <0>        -0.1056
     30 C22       -14.8426    1.2531    5.0064 C.ar      1 <0>        -0.0997
     31 Cl1       -18.7350    0.6109    5.6165 Cl        1 <0>        -0.0587
     32 H1        -12.1256    2.4491    5.2431 H         1 <0>         0.0930
     33 H2        -12.6511    1.0064    6.1435 H         1 <0>         0.1013
     34 H3        -10.9178    1.2973    5.8620 H         1 <0>         0.1005
     35 H4         -8.9647    0.3424    1.2564 H         1 <0>         0.1355
     36 H5         -8.7652   -1.1783    2.1598 H         1 <0>         0.1353
     37 H6         -6.7215   -0.8987    0.4254 H         1 <0>         0.4129
     38 H7         -4.6376   -1.2203   -0.5762 H         1 <0>         0.3978
     39 H8         -2.5825   -0.7462   -1.9855 H         1 <0>         0.0697
     40 H9         -2.3830   -2.2668   -1.0822 H         1 <0>         0.0697
     41 H10        -0.2105   -1.4687   -1.9721 H         1 <0>         0.0764
     42 H11        -0.2699   -2.7036    0.1774 H         1 <0>         0.0628
     43 H12         1.0360   -1.4941    0.1714 H         1 <0>         0.0658
     44 H13        -0.2239   -1.4329    2.3062 H         1 <0>         0.0732
     45 H14        -2.5959   -0.7104    2.2927 H         1 <0>         0.0871
     46 H15        -2.3908   -2.2459    1.4162 H         1 <0>         0.0601
     47 H16        -0.7629    0.9873    2.2843 H         1 <0>         0.0658
     48 H17         0.7481    0.6613    1.4017 H         1 <0>         0.0635
     49 H18        -0.7035    2.2222    0.1348 H         1 <0>         0.0732
     50 H19         0.7559    0.6404   -1.0967 H         1 <0>         0.0658
     51 H20        -0.7495    0.9516   -1.9940 H         1 <0>         0.0628
     52 H21        -2.8704    1.4092   -0.7552 H         1 <0>         0.0601
     53 H22        -2.8760    1.4241    1.0247 H         1 <0>         0.0871
     54 H23       -15.2459   -1.3987    2.9264 H         1 <0>         0.1472
     55 H24       -17.5462   -1.2034    3.7742 H         1 <0>         0.1443
     56 H25       -16.3948    2.1284    6.1814 H         1 <0>         0.1425
     57 H26       -14.0868    1.9426    5.3524 H         1 <0>         0.1370
@<TRIPOS>BOND
     1    1    2 1
     2    1   32 1
     3    1   33 1
     4    1   34 1
     5    2    6 1
     6    2    3 1
     7    3    4 2
     8    3   25 1
     9    4    5 1
    10    5    6 2
    11    6    7 1
    12    7    8 1
    13    8    9 1
    14    8   35 1
    15    8   36 1
    16    9   10 2
    17    9   11 am
    18   11   12 am
    19   11   37 1
    20   12   13 2
    21   12   14 am
    22   14   15 1
    23   14   38 1
    24   15   20 1
    25   15   24 1
    26   15   16 1
    27   16   17 1
    28   16   39 1
    29   16   40 1
    30   17   23 1
    31   17   18 1
    32   17   41 1
    33   18   19 1
    34   18   42 1
    35   18   43 1
    36   19   20 1
    37   19   21 1
    38   19   44 1
    39   20   45 1
    40   20   46 1
    41   21   22 1
    42   21   47 1
    43   21   48 1
    44   22   23 1
    45   22   24 1
    46   22   49 1
    47   23   50 1
    48   23   51 1
    49   24   52 1
    50   24   53 1
    51   25   30 ar
    52   25   26 ar
    53   26   27 ar
    54   26   54 1
    55   27   28 ar
    56   27   55 1
    57   28   29 ar
    58   28   31 1
    59   29   30 ar
    60   29   56 1
    61   30   57 1
