@<TRIPOS>MOLECULE
ZINC40764393
   59    61     0     0     0
SMALL
USER_CHARGES

@<TRIPOS>ATOM
      1 C1          1.9285   -2.2953   -2.2081 C.3       1 <0>         0.0513
      2 N1          1.2368   -1.7490   -1.0379 N.pl3     1 <0>        -0.5538
      3 C2          1.1249   -2.5470    0.1855 C.3       1 <0>         0.0418
      4 C3          0.6915   -0.4846   -1.0880 C.cat     1 <0>         0.5762
      5 N2          0.1953    0.0534   -0.0114 N.pl3     1 <0>        -0.7370
      6 C4          0.6698    0.2627   -2.3671 C.ar      1 <0>        -0.1344
      7 C5          0.8892    1.6405   -2.3736 C.ar      1 <0>        -0.0702
      8 C6          0.8696    2.3358   -3.5626 C.ar      1 <0>        -0.0562
      9 C7          0.6302    1.6614   -4.7616 C.ar      1 <0>        -0.0632
     10 C8          0.4107    0.2825   -4.7545 C.ar      1 <0>        -0.0809
     11 C9          0.4358   -0.4125   -3.5653 C.ar      1 <0>        -0.0684
     12 C10         0.6086    2.4073   -6.0382 C.2       1 <0>         0.5406
     13 O1          0.7993    3.6077   -6.0441 O.2       1 <0>        -0.4982
     14 N3          0.3774    1.7560   -7.1953 N.am      1 <0>        -0.6446
     15 C11         0.2450    2.4712   -8.3820 C.ar      1 <0>         0.1877
     16 C12        -0.1781    3.7937   -8.3564 C.ar      1 <0>        -0.1341
     17 C13        -0.3082    4.5011   -9.5343 C.ar      1 <0>        -0.0609
     18 C14        -0.0187    3.9003  -10.7490 C.ar      1 <0>        -0.0752
     19 C15         0.4024    2.5891  -10.7941 C.ar      1 <0>        -0.0653
     20 C16         0.5441    1.8615   -9.6098 C.ar      1 <0>        -0.1752
     21 C17         0.9998    0.4596   -9.6505 C.2       1 <0>         0.5755
     22 O2          1.0322   -0.1990   -8.6288 O.2       1 <0>        -0.4973
     23 N4          1.3805   -0.0916  -10.8199 N.am      1 <0>        -0.6520
     24 C18         1.7082   -1.4449  -10.8784 C.ar      1 <0>         0.3678
     25 C19         2.2035   -1.9830  -12.0611 C.ar      1 <0>        -0.1888
     26 C20         2.5250   -3.3279  -12.1061 C.ar      1 <0>        -0.0344
     27 C21         2.3391   -4.0922  -10.9608 C.ar      1 <0>        -0.1226
     28 C22         1.8425   -3.4911   -9.8200 C.ar      1 <0>         0.1455
     29 N5          1.5500   -2.2045   -9.8062 N.ar      1 <0>        -0.4646
     30 Cl1         2.7260   -5.7846  -10.9632 Cl        1 <0>        -0.0553
     31 C23        -0.1658    4.6848  -12.0272 C.3       1 <0>        -0.0630
     32 C24         1.1548    5.3872  -12.3493 C.3       1 <0>        -0.1766
     33 C25         1.0077    6.1717  -13.6276 C.2       1 <0>         0.4882
     34 O3         -0.0548    6.1693  -14.2255 O.co2     1 <0>        -0.6966
     35 O4          1.9513    6.8088  -14.0638 O.co2     1 <0>        -0.7018
     36 H1          1.2316   -2.8926   -2.7960 H         1 <0>         0.0947
     37 H2          2.3108   -1.4774   -2.8188 H         1 <0>         0.1028
     38 H3          2.7576   -2.9223   -1.8802 H         1 <0>         0.1062
     39 H4          1.9831   -2.3495    0.8280 H         1 <0>         0.0950
     40 H5          0.2083   -2.2796    0.7113 H         1 <0>         0.0874
     41 H6          1.1002   -3.6058   -0.0723 H         1 <0>         0.1144
     42 H7         -0.1886    0.9435   -0.0466 H         1 <0>         0.4470
     43 H8          1.0741    2.1620   -1.4461 H         1 <0>         0.1464
     44 H9          1.0391    3.4024   -3.5674 H         1 <0>         0.1618
     45 H10         0.2251   -0.2396   -5.6814 H         1 <0>         0.1546
     46 H11         0.2701   -1.4797   -3.5601 H         1 <0>         0.1493
     47 H12         0.3033    0.7889   -7.2011 H         1 <0>         0.4235
     48 H13        -0.4060    4.2689   -7.4137 H         1 <0>         0.1502
     49 H14        -0.6380    5.5292   -9.5092 H         1 <0>         0.1373
     50 H15         0.6264    2.1255  -11.7435 H         1 <0>         0.1312
     51 H16         1.4264    0.4536  -11.6209 H         1 <0>         0.4261
     52 H17         2.3351   -1.3595  -12.9331 H         1 <0>         0.1510
     53 H18         2.9113   -3.7735  -13.0108 H         1 <0>         0.1518
     54 H19         1.6962   -4.0807   -8.9272 H         1 <0>         0.1663
     55 H20        -0.4252    4.0079  -12.8412 H         1 <0>         0.0754
     56 H21        -0.9535    5.4288  -11.9083 H         1 <0>         0.0775
     57 H22         1.4142    6.0641  -11.5354 H         1 <0>         0.0587
     58 H23         1.9424    4.6432  -12.4682 H         1 <0>         0.0567
     59 H24         0.2095   -0.4359    0.8261 H         1 <0>         0.4305
@<TRIPOS>BOND
     1    1    2 1
     2    1   36 1
     3    1   37 1
     4    1   38 1
     5    2    3 1
     6    2    4 1
     7    3   39 1
     8    3   40 1
     9    3   41 1
    10    4    5 2
    11    4    6 1
    12    5   42 1
    13    5   59 1
    14    6   11 ar
    15    6    7 ar
    16    7    8 ar
    17    7   43 1
    18    8    9 ar
    19    8   44 1
    20    9   10 ar
    21    9   12 1
    22   10   11 ar
    23   10   45 1
    24   11   46 1
    25   12   13 2
    26   12   14 am
    27   14   15 1
    28   14   47 1
    29   15   20 ar
    30   15   16 ar
    31   16   17 ar
    32   16   48 1
    33   17   18 ar
    34   17   49 1
    35   18   19 ar
    36   18   31 1
    37   19   20 ar
    38   19   50 1
    39   20   21 1
    40   21   22 2
    41   21   23 am
    42   23   24 1
    43   23   51 1
    44   24   29 ar
    45   24   25 ar
    46   25   26 ar
    47   25   52 1
    48   26   27 ar
    49   26   53 1
    50   27   28 ar
    51   27   30 1
    52   28   29 ar
    53   28   54 1
    54   31   32 1
    55   31   55 1
    56   31   56 1
    57   32   33 1
    58   32   57 1
    59   32   58 1
    60   33   34 2
    61   33   35 1
