@<TRIPOS>MOLECULE
ZINC04678395
   47    50     0     0     0
SMALL
USER_CHARGES
N-[(4-fluorophenyl)methyl]-1-methyl-5-(4-phenylphenyl)-imidazol-2-amine
@<TRIPOS>ATOM
      1 C1          1.4330   -3.9373   -4.2018 C.3       1 <0>         0.0697
      2 N1          1.3299   -4.6150   -2.9070 N.pl3     1 <0>        -0.4835
      3 C2          1.2611   -5.9814   -2.6946 C.2       1 <0>        -0.0201
      4 C3          1.1695   -6.1611   -1.3501 C.2       1 <0>         0.0356
      5 N2          1.1875   -4.9567   -0.7654 N.2       1 <0>        -0.5326
      6 C4          1.2866   -4.0221   -1.6833 C.2       1 <0>         0.4903
      7 N3          1.3331   -2.6610   -1.4454 N.pl3     1 <0>        -0.7131
      8 C5          1.2712   -2.1549   -0.0720 C.3       1 <0>         0.1929
      9 C6          1.3399   -0.6495   -0.0879 C.ar      1 <0>        -0.1237
     10 C7          0.1773    0.0941   -0.1688 C.ar      1 <0>        -0.0682
     11 C8          0.2390    1.4746   -0.1834 C.ar      1 <0>        -0.1565
     12 C9          1.4659    2.1130   -0.1174 C.ar      1 <0>         0.1090
     13 C10         2.6297    1.3671   -0.0369 C.ar      1 <0>        -0.1565
     14 C11         2.5654   -0.0133   -0.0220 C.ar      1 <0>        -0.0680
     15 F1          1.5275    3.4625   -0.1320 F         1 <0>        -0.1367
     16 C12         1.2776   -7.0370   -3.7270 C.ar      1 <0>         0.0079
     17 C13         0.7998   -8.3155   -3.4275 C.ar      1 <0>        -0.1043
     18 C14         0.8100   -9.2970   -4.3927 C.ar      1 <0>        -0.0989
     19 C15         1.3082   -9.0191   -5.6658 C.ar      1 <0>        -0.0521
     20 C16         1.7913   -7.7447   -5.9642 C.ar      1 <0>        -0.1006
     21 C17         1.7764   -6.7598   -5.0026 C.ar      1 <0>        -0.1314
     22 C18         1.3248  -10.0790   -6.7025 C.ar      1 <0>        -0.0452
     23 C19         1.8170   -9.8033   -7.9773 C.ar      1 <0>        -0.1126
     24 C20         1.8339  -10.7950   -8.9368 C.ar      1 <0>        -0.1173
     25 C21         1.3544  -12.0579   -8.6387 C.ar      1 <0>        -0.1195
     26 C22         0.8603  -12.3359   -7.3768 C.ar      1 <0>        -0.1168
     27 C23         0.8428  -11.3535   -6.4078 C.ar      1 <0>        -0.1116
     28 H1          2.4773   -3.9040   -4.5123 H         1 <0>         0.0766
     29 H2          0.8503   -4.4822   -4.9445 H         1 <0>         0.0912
     30 H3          1.0481   -2.9215   -4.1119 H         1 <0>         0.0815
     31 H4          1.0952   -7.1110   -0.8416 H         1 <0>         0.1736
     32 H5          1.4068   -2.0412   -2.1879 H         1 <0>         0.4051
     33 H6          2.1107   -2.5509    0.4993 H         1 <0>         0.0770
     34 H7          0.3359   -2.4711    0.3899 H         1 <0>         0.0768
     35 H8         -0.7796   -0.4040   -0.2202 H         1 <0>         0.1359
     36 H9         -0.6691    2.0553   -0.2507 H         1 <0>         0.1386
     37 H10         3.5873    1.8639    0.0143 H         1 <0>         0.1386
     38 H11         3.4730   -0.5953    0.0416 H         1 <0>         0.1360
     39 H12         0.4182   -8.5322   -2.4407 H         1 <0>         0.1309
     40 H13         0.4363  -10.2839   -4.1629 H         1 <0>         0.1297
     41 H14         2.1767   -7.5307   -6.9501 H         1 <0>         0.1263
     42 H15         2.1504   -5.7734   -5.2338 H         1 <0>         0.1239
     43 H16         2.1878   -8.8166   -8.2124 H         1 <0>         0.1243
     44 H17         2.2188  -10.5837   -9.9235 H         1 <0>         0.1242
     45 H18         1.3655  -12.8296   -9.3941 H         1 <0>         0.1230
     46 H19         0.4872  -13.3237   -7.1497 H         1 <0>         0.1248
     47 H20         0.4562  -11.5715   -5.4232 H         1 <0>         0.1260
@<TRIPOS>BOND
     1    1    2 1
     2    1   28 1
     3    1   29 1
     4    1   30 1
     5    2    6 1
     6    2    3 1
     7    3    4 2
     8    3   16 1
     9    4    5 1
    10    4   31 1
    11    5    6 2
    12    6    7 1
    13    7    8 1
    14    7   32 1
    15    8    9 1
    16    8   33 1
    17    8   34 1
    18    9   14 ar
    19    9   10 ar
    20   10   11 ar
    21   10   35 1
    22   11   12 ar
    23   11   36 1
    24   12   13 ar
    25   12   15 1
    26   13   14 ar
    27   13   37 1
    28   14   38 1
    29   16   21 ar
    30   16   17 ar
    31   17   18 ar
    32   17   39 1
    33   18   19 ar
    34   18   40 1
    35   19   20 ar
    36   19   22 1
    37   20   21 ar
    38   20   41 1
    39   21   42 1
    40   22   27 ar
    41   22   23 ar
    42   23   24 ar
    43   23   43 1
    44   24   25 ar
    45   24   44 1
    46   25   26 ar
    47   25   45 1
    48   26   27 ar
    49   26   46 1
    50   27   47 1
