@<TRIPOS>MOLECULE
ZINC11956471
   49    51     0     0     0
SMALL
USER_CHARGES
(E)-3-[4-(2,3-dimethylphenoxy)phenyl]-2-(4-methoxyphenyl)prop-2-enoic acid
@<TRIPOS>ATOM
      1 C1         -8.4075    7.9687   -0.0852 C.3       1 <0>        -0.1164
      2 C2         -8.1393    7.0110    1.0470 C.ar      1 <0>        -0.0761
      3 C3         -7.9020    7.4956    2.3203 C.ar      1 <0>        -0.1173
      4 C4         -7.6552    6.6198    3.3612 C.ar      1 <0>        -0.1095
      5 C5         -7.6456    5.2575    3.1316 C.ar      1 <0>        -0.1273
      6 C6         -7.8833    4.7686    1.8552 C.ar      1 <0>         0.0905
      7 C7         -8.1247    5.6502    0.8109 C.ar      1 <0>        -0.0908
      8 C8         -8.3772    5.1230   -0.5781 C.3       1 <0>        -0.1161
      9 O1         -7.8744    3.4291    1.6268 O.3       1 <0>        -0.2608
     10 C9         -6.7132    2.8609    1.2138 C.ar      1 <0>         0.1097
     11 C10        -6.6317    1.4805    1.0657 C.ar      1 <0>        -0.1476
     12 C11        -5.4567    0.8989    0.6473 C.ar      1 <0>        -0.0778
     13 C12        -4.3412    1.7003    0.3707 C.ar      1 <0>        -0.0683
     14 C13        -4.4272    3.0899    0.5276 C.ar      1 <0>        -0.0689
     15 C14        -5.6091    3.6612    0.9407 C.ar      1 <0>        -0.1881
     16 C15        -3.0861    1.0861   -0.0758 C.2       1 <0>        -0.1008
     17 C16        -2.2652    1.7581   -0.9304 C.2       1 <0>        -0.0936
     18 C17        -2.7049    3.0418   -1.5239 C.ar      1 <0>        -0.0334
     19 C18        -3.8001    3.0741   -2.3876 C.ar      1 <0>        -0.0718
     20 C19        -4.2102    4.2719   -2.9336 C.ar      1 <0>        -0.2036
     21 C20        -3.5276    5.4433   -2.6339 C.ar      1 <0>         0.1086
     22 C21        -2.4337    5.4141   -1.7792 C.ar      1 <0>        -0.1495
     23 C22        -2.0215    4.2208   -1.2250 C.ar      1 <0>        -0.0591
     24 O2         -3.9314    6.6212   -3.1780 O.3       1 <0>        -0.3215
     25 C23        -5.0638    6.5793   -4.0486 C.3       1 <0>         0.0301
     26 C24        -0.9440    1.2094   -1.2634 C.2       1 <0>         0.4875
     27 O3         -0.5830    0.1556   -0.7763 O.co2     1 <0>        -0.6314
     28 H1         -7.4656    8.2410   -0.5615 H         1 <0>         0.0741
     29 H2         -9.0603    7.4927   -0.8168 H         1 <0>         0.0694
     30 H3         -8.8904    8.8651    0.3038 H         1 <0>         0.0675
     31 H4         -7.9098    8.5602    2.5020 H         1 <0>         0.1257
     32 H5         -7.4702    7.0009    4.3546 H         1 <0>         0.1285
     33 H6         -7.4534    4.5737    3.9452 H         1 <0>         0.1296
     34 H7         -9.4456    4.9553   -0.7144 H         1 <0>         0.0728
     35 H8         -8.0269    5.8492   -1.3116 H         1 <0>         0.0698
     36 H9         -7.8418    4.1832   -0.7129 H         1 <0>         0.0713
     37 H10        -7.4922    0.8638    1.2792 H         1 <0>         0.1278
     38 H11        -5.3946   -0.1732    0.5326 H         1 <0>         0.1318
     39 H12        -3.5689    3.7120    0.3204 H         1 <0>         0.1351
     40 H13        -5.6780    4.7327    1.0574 H         1 <0>         0.1224
     41 H14        -2.8128    0.1012    0.2731 H         1 <0>         0.1341
     42 H15        -4.3285    2.1626   -2.6249 H         1 <0>         0.1181
     43 H16        -5.0608    4.2984   -3.5985 H         1 <0>         0.1208
     44 H17        -1.9049    6.3271   -1.5486 H         1 <0>         0.1256
     45 H18        -1.1708    4.1988   -0.5600 H         1 <0>         0.1287
     46 H19        -5.2795    7.5838   -4.4128 H         1 <0>         0.0933
     47 H20        -4.8486    5.9250   -4.8934 H         1 <0>         0.0524
     48 H21        -5.9270    6.1972   -3.5038 H         1 <0>         0.0506
     49 O4         -0.1336    1.8719   -2.1138 O.co2     1 <0>        -0.7462
@<TRIPOS>BOND
     1    1    2 1
     2    1   28 1
     3    1   29 1
     4    1   30 1
     5    2    7 ar
     6    2    3 ar
     7    3    4 ar
     8    3   31 1
     9    4    5 ar
    10    4   32 1
    11    5    6 ar
    12    5   33 1
    13    6    7 ar
    14    6    9 1
    15    7    8 1
    16    8   34 1
    17    8   35 1
    18    8   36 1
    19    9   10 1
    20   10   15 ar
    21   10   11 ar
    22   11   12 ar
    23   11   37 1
    24   12   13 ar
    25   12   38 1
    26   13   14 ar
    27   13   16 1
    28   14   15 ar
    29   14   39 1
    30   15   40 1
    31   16   17 2
    32   16   41 1
    33   17   18 1
    34   17   26 1
    35   18   23 ar
    36   18   19 ar
    37   19   20 ar
    38   19   42 1
    39   20   21 ar
    40   20   43 1
    41   21   22 ar
    42   21   24 1
    43   22   23 ar
    44   22   44 1
    45   23   45 1
    46   24   25 1
    47   25   46 1
    48   25   47 1
    49   25   48 1
    50   26   27 2
    51   26   49 1
