@<TRIPOS>MOLECULE
ZINC12640406
   65    70     0     0     0
SMALL
USER_CHARGES
(4Z)-2-(4-ethoxyphenyl)-4-[[(7-methyl-2-phenyl-imidazo[1,2-a]pyridin-3-yl)amino]methylene]isoquinoline-1,3-dione
@<TRIPOS>ATOM
      1 C1          9.9733    3.5915    1.0168 C.3       1 <0>        -0.1552
      2 C2          8.6655    3.0212    0.4642 C.3       1 <0>         0.0506
      3 O1          8.2793    1.8817    1.2353 O.3       1 <0>        -0.3124
      4 C3          7.1300    1.2522    0.8732 C.ar      1 <0>         0.1446
      5 C4          6.6970    0.1392    1.5792 C.ar      1 <0>        -0.1427
      6 C5          5.5296   -0.5003    1.2122 C.ar      1 <0>        -0.0519
      7 C6          4.7892   -0.0296    0.1362 C.ar      1 <0>         0.0743
      8 C7          5.2263    1.0806   -0.5738 C.ar      1 <0>        -0.0506
      9 C8          6.3909    1.7227   -0.2024 C.ar      1 <0>        -0.2000
     10 N1          3.6034   -0.6787   -0.2370 N.am      1 <0>        -0.5051
     11 C9          3.6843   -1.9131   -0.7599 C.2       1 <0>         0.5670
     12 O2          4.7749   -2.4347   -0.8964 O.2       1 <0>        -0.4868
     13 C10         2.4785   -2.6432   -1.1699 C.ar      1 <0>        -0.1651
     14 C11         2.5547   -3.9260   -1.7140 C.ar      1 <0>        -0.0298
     15 C12         1.3995   -4.5783   -2.0866 C.ar      1 <0>        -0.1476
     16 C13         0.1607   -3.9739   -1.9264 C.ar      1 <0>        -0.0641
     17 C14         0.0630   -2.7062   -1.3910 C.ar      1 <0>        -0.1495
     18 C15         1.2169   -2.0342   -1.0033 C.ar      1 <0>         0.0532
     19 C16         1.1691   -0.6737   -0.4299 C.2       1 <0>        -0.3155
     20 C17        -0.0331   -0.0222   -0.2461 C.2       1 <0>         0.2516
     21 N2         -0.0481    1.2725    0.1623 N.pl3     1 <0>        -0.5889
     22 C18        -1.2559    1.8897    0.4750 C.2       1 <0>         0.1580
     23 C19        -1.5132    3.2461    0.4694 C.2       1 <0>         0.1024
     24 N3         -2.7955    3.4274    0.8269 N.2       1 <0>        -0.4565
     25 C20        -3.3543    2.2510    1.0649 C.2       1 <0>         0.2419
     26 N4         -2.4160    1.2691    0.8533 N.pl3     1 <0>        -0.3730
     27 C21        -2.7400   -0.0476    1.0309 C.2       1 <0>         0.0326
     28 C22        -3.9823   -0.4032    1.4170 C.2       1 <0>        -0.1162
     29 C23        -4.9637    0.5779    1.6412 C.2       1 <0>        -0.0678
     30 C24        -4.6574    1.8914    1.4683 C.2       1 <0>        -0.0736
     31 C25        -6.3505    0.1754    2.0723 C.3       1 <0>        -0.1166
     32 C26        -0.5454    4.3147    0.1266 C.ar      1 <0>        -0.0154
     33 C27         0.7988    4.1789    0.4724 C.ar      1 <0>        -0.1117
     34 C28         1.6961    5.1751    0.1462 C.ar      1 <0>        -0.1096
     35 C29         1.2628    6.3116   -0.5130 C.ar      1 <0>        -0.1118
     36 C30        -0.0703    6.4543   -0.8539 C.ar      1 <0>        -0.1163
     37 C31        -0.9762    5.4625   -0.5378 C.ar      1 <0>        -0.0847
     38 C32         2.4369   -0.0385   -0.0561 C.2       1 <0>         0.5868
     39 O3          2.4317    1.0808    0.4235 O.2       1 <0>        -0.5263
     40 H1         10.2706    4.4686    0.4232 H         1 <0>         0.0807
     41 H2         10.7607    2.8256    0.9589 H         1 <0>         0.0680
     42 H3          9.8288    3.8903    2.0655 H         1 <0>         0.0678
     43 H4          7.8781    3.7871    0.5221 H         1 <0>         0.0647
     44 H5          8.8099    2.7224   -0.5845 H         1 <0>         0.0647
     45 H6          7.2730   -0.2269    2.4163 H         1 <0>         0.1393
     46 H7          5.1926   -1.3667    1.7619 H         1 <0>         0.1309
     47 H8          4.6531    1.4445   -1.4137 H         1 <0>         0.1267
     48 H9          6.7286    2.5890   -0.7519 H         1 <0>         0.1356
     49 H10         3.5140   -4.4052   -1.8421 H         1 <0>         0.1401
     50 H11         1.4588   -5.5710   -2.5077 H         1 <0>         0.1333
     51 H12        -0.7343   -4.5001   -2.2236 H         1 <0>         0.1319
     52 H13        -0.9039   -2.2407   -1.2690 H         1 <0>         0.1250
     53 H14        -0.9795   -0.5518   -0.4304 H         1 <0>         0.1627
     54 H15         0.8942    1.8337    0.2461 H         1 <0>         0.4679
     55 H16        -1.9937   -0.8097    0.8615 H         1 <0>         0.1621
     56 H17        -4.2245   -1.4467    1.5541 H         1 <0>         0.1575
     57 H18        -5.4047    2.6523    1.6385 H         1 <0>         0.1576
     58 H19        -6.9714    1.0749    2.1963 H         1 <0>         0.0742
     59 H20        -6.2946   -0.3663    3.0281 H         1 <0>         0.0787
     60 H21        -6.7977   -0.4762    1.3071 H         1 <0>         0.0789
     61 H22         1.1374    3.2940    0.9907 H         1 <0>         0.1203
     62 H23         2.7381    5.0694    0.4102 H         1 <0>         0.1282
     63 H24         1.9681    7.0906   -0.7622 H         1 <0>         0.1262
     64 H25        -0.4028    7.3439   -1.3682 H         1 <0>         0.1284
     65 H26        -2.0167    5.5752   -0.8042 H         1 <0>         0.1305
@<TRIPOS>BOND
     1    1    2 1
     2    1   40 1
     3    1   41 1
     4    1   42 1
     5    2    3 1
     6    2   43 1
     7    2   44 1
     8    3    4 1
     9    4    9 ar
    10    4    5 ar
    11    5    6 ar
    12    5   45 1
    13    6    7 ar
    14    6   46 1
    15    7    8 ar
    16    7   10 1
    17    8    9 ar
    18    8   47 1
    19    9   48 1
    20   10   38 am
    21   10   11 am
    22   11   12 2
    23   11   13 1
    24   13   18 ar
    25   13   14 ar
    26   14   15 ar
    27   14   49 1
    28   15   16 ar
    29   15   50 1
    30   16   17 ar
    31   16   51 1
    32   17   18 ar
    33   17   52 1
    34   18   19 1
    35   19   20 2
    36   19   38 1
    37   20   21 1
    38   20   53 1
    39   21   22 1
    40   21   54 1
    41   22   26 1
    42   22   23 2
    43   23   24 1
    44   23   32 1
    45   24   25 2
    46   25   30 1
    47   25   26 1
    48   26   27 1
    49   27   28 2
    50   27   55 1
    51   28   29 1
    52   28   56 1
    53   29   30 2
    54   29   31 1
    55   30   57 1
    56   31   58 1
    57   31   59 1
    58   31   60 1
    59   32   37 ar
    60   32   33 ar
    61   33   34 ar
    62   33   61 1
    63   34   35 ar
    64   34   62 1
    65   35   36 ar
    66   35   63 1
    67   36   37 ar
    68   36   64 1
    69   37   65 1
    70   38   39 2
