@<TRIPOS>MOLECULE
ZINC09339602
   51    55     0     0     0
SMALL
USER_CHARGES
(5S)-4-benzoyl-1-(4,6-dimethyl-1,3-benzothiazol-2-yl)-5-(4-fluorophenyl)-3-hydroxy-5H-pyrrol-2-one
@<TRIPOS>ATOM
      1 C1         -4.4045    2.2016    2.7238 C.3       1 <0>        -0.1090
      2 C2         -2.9084    2.0211    2.7139 C.ar      1 <0>        -0.0797
      3 C3         -2.2607    1.6004    1.5610 C.ar      1 <0>        -0.1109
      4 C4         -0.9025    1.4234    1.5266 C.ar      1 <0>        -0.0347
      5 C5         -0.1115    1.6765    2.6714 C.ar      1 <0>         0.1136
      6 C6         -0.8045    2.1080    3.8257 C.ar      1 <0>        -0.1534
      7 C7         -2.1664    2.2776    3.8521 C.ar      1 <0>        -0.0656
      8 S1          0.5104    2.3085    5.0035 S.3       1 <0>        -0.0015
      9 C8          1.8520    1.8236    3.9268 C.2       1 <0>         0.4193
     10 N1          1.2270    1.5576    2.8031 N.2       1 <0>        -0.5332
     11 N2          3.2050    1.7483    4.2061 N.am      1 <0>        -0.5105
     12 C9          3.8409    2.0675    5.4898 C.3       1 <0>         0.2667
     13 H1          3.6192    3.1077    5.7706 H         1 <0>         0.0873
     14 C10         5.3204    1.8291    5.2975 C.2       1 <0>        -0.4897
     15 C11         5.4872    1.4225    4.0166 C.2       1 <0>         0.2754
     16 C12         4.1710    1.3751    3.3473 C.2       1 <0>         0.5113
     17 O1          3.9880    1.0475    2.1917 O.2       1 <0>        -0.4641
     18 O2          6.6709    1.1094    3.4413 O.3       1 <0>        -0.6325
     19 C13         6.3726    2.0087    6.3018 C.2       1 <0>         0.5068
     20 O3          6.9870    1.0447    6.7182 O.2       1 <0>        -0.4642
     21 C14         6.6875    3.3615    6.8088 C.ar      1 <0>        -0.1383
     22 C15         5.9328    4.4601    6.3919 C.ar      1 <0>        -0.0686
     23 C16         6.2292    5.7186    6.8722 C.ar      1 <0>        -0.1373
     24 C17         7.2779    5.8954    7.7578 C.ar      1 <0>        -0.1053
     25 C18         8.0332    4.8119    8.1711 C.ar      1 <0>        -0.1366
     26 C19         7.7446    3.5472    7.7024 C.ar      1 <0>        -0.0729
     27 C20         3.3091    1.1621    6.5708 C.ar      1 <0>        -0.1003
     28 C21         3.1508   -0.1889    6.3243 C.ar      1 <0>        -0.0587
     29 C22         2.6686   -1.0211    7.3167 C.ar      1 <0>        -0.1498
     30 C23         2.3327   -0.4992    8.5544 C.ar      1 <0>         0.0947
     31 C24         2.4863    0.8551    8.7983 C.ar      1 <0>        -0.1515
     32 C25         2.9745    1.6843    7.8063 C.ar      1 <0>        -0.0771
     33 F1          1.8552   -1.3107    9.5232 F         1 <0>        -0.1444
     34 C26        -0.2434    0.9598    0.2531 C.3       1 <0>        -0.1195
     35 H2         -4.8107    1.9499    1.7330 H         1 <0>         0.0671
     36 H3         -4.6460    3.2475    2.9642 H         1 <0>         0.0702
     37 H4         -4.8487    1.5392    3.4813 H         1 <0>         0.0703
     38 H5         -2.8410    1.4047    0.6714 H         1 <0>         0.1288
     39 H6         -2.6552    2.6095    4.7561 H         1 <0>         0.1284
     40 H7          5.1168    4.3241    5.6977 H         1 <0>         0.1308
     41 H8          5.6441    6.5685    6.5536 H         1 <0>         0.1225
     42 H9          7.5081    6.8836    8.1279 H         1 <0>         0.1192
     43 H10         8.8501    4.9569    8.8624 H         1 <0>         0.1215
     44 H11         8.3346    2.7024    8.0259 H         1 <0>         0.1293
     45 H12         3.4080   -0.5949    5.3571 H         1 <0>         0.1254
     46 H13         2.5489   -2.0772    7.1252 H         1 <0>         0.1327
     47 H14         2.2244    1.2633    9.7632 H         1 <0>         0.1341
     48 H15         3.0944    2.7406    7.9964 H         1 <0>         0.1332
     49 H16         0.8417    0.8744    0.4119 H         1 <0>         0.0839
     50 H17        -0.4406    1.6876   -0.5478 H         1 <0>         0.0685
     51 H18        -0.6503   -0.0209   -0.0343 H         1 <0>         0.0684
@<TRIPOS>BOND
     1    1    2 1
     2    1   35 1
     3    1   36 1
     4    1   37 1
     5    2    7 ar
     6    2    3 ar
     7    3    4 ar
     8    3   38 1
     9    4    5 ar
    10    4   34 1
    11    5   10 1
    12    5    6 ar
    13    6    7 ar
    14    6    8 1
    15    7   39 1
    16    8    9 1
    17    9   10 2
    18    9   11 1
    19   11   16 am
    20   11   12 1
    21   12   13 1
    22   12   14 1
    23   12   27 1
    24   14   15 2
    25   14   19 1
    26   15   16 1
    27   15   18 1
    28   16   17 2
    29   19   20 2
    30   19   21 1
    31   21   26 ar
    32   21   22 ar
    33   22   23 ar
    34   22   40 1
    35   23   24 ar
    36   23   41 1
    37   24   25 ar
    38   24   42 1
    39   25   26 ar
    40   25   43 1
    41   26   44 1
    42   27   32 ar
    43   27   28 ar
    44   28   29 ar
    45   28   45 1
    46   29   30 ar
    47   29   46 1
    48   30   31 ar
    49   30   33 1
    50   31   32 ar
    51   31   47 1
    52   32   48 1
    53   34   49 1
    54   34   50 1
    55   34   51 1
