@<TRIPOS>MOLECULE
ZINC35023429
   72    74     0     0     0
SMALL
USER_CHARGES

@<TRIPOS>ATOM
      1 C1          1.2634    1.6436   -2.5159 C.3       1 <0>        -0.1028
      2 C2          1.4866    0.1708   -2.2880 C.ar      1 <0>        -0.1312
      3 C3          0.5380   -0.7395   -2.6968 C.ar      1 <0>        -0.0346
      4 C4          0.7462   -2.1057   -2.4852 C.ar      1 <0>        -0.1748
      5 C5          1.9181   -2.5417   -1.8588 C.ar      1 <0>        -0.0335
      6 C6          2.8613   -1.6250   -1.4533 C.ar      1 <0>        -0.2233
      7 C7          2.6526   -0.2673   -1.6704 C.ar      1 <0>         0.1469
      8 O1          3.5873    0.6329   -1.2736 O.3       1 <0>        -0.3081
      9 C8          4.7616    0.1146   -0.6456 C.3       1 <0>         0.0625
     10 C9          5.6919    1.2701   -0.2711 C.3       1 <0>        -0.0954
     11 C10         5.0184    2.1443    0.7887 C.3       1 <0>        -0.1468
     12 C11         7.0017    0.7100    0.2871 C.3       1 <0>        -0.1465
     13 C12        -0.2682   -3.0852   -2.9214 C.2       1 <0>         0.5047
     14 C13        -0.0236   -4.5206   -2.7482 C.2       1 <0>        -0.4948
     15 C14         0.0967   -5.2625   -1.4376 C.3       1 <0>         0.2672
     16 H1          0.9331   -4.8694   -0.8597 H         1 <0>         0.0769
     17 N1          0.3389   -6.6680   -1.7837 N.am      1 <0>        -0.6147
     18 C15         0.3624   -6.7654   -3.1254 C.2       1 <0>         0.5158
     19 O2          0.5411   -7.7940   -3.7468 O.2       1 <0>        -0.5224
     20 C16         0.1322   -5.4372   -3.7316 C.2       1 <0>         0.2592
     21 O3          0.0872   -5.1784   -5.0588 O.3       1 <0>        -0.6374
     22 C17         0.5226   -7.7700   -0.8360 C.3       1 <0>         0.1189
     23 C18        -0.8353   -8.3969   -0.5133 C.3       1 <0>        -0.0475
     24 N2         -0.6511   -9.5019    0.4369 N.4       1 <0>        -0.3824
     25 C19        -0.1544   -8.9720    1.7138 C.3       1 <0>        -0.0518
     26 C20        -1.9360  -10.1798    0.6547 C.3       1 <0>        -0.0459
     27 C21        -1.1825   -5.1356   -0.6511 C.ar      1 <0>        -0.1143
     28 C22        -2.3204   -5.7985   -1.0724 C.ar      1 <0>        -0.0647
     29 C23        -3.4944   -5.6834   -0.3534 C.ar      1 <0>        -0.1496
     30 C24        -3.5309   -4.9023    0.7925 C.ar      1 <0>         0.1223
     31 C25        -2.3877   -4.2385    1.2134 C.ar      1 <0>        -0.2067
     32 C26        -1.2148   -4.3610    0.4938 C.ar      1 <0>        -0.0720
     33 O4         -4.6847   -4.7871    1.5012 O.3       1 <0>        -0.2909
     34 C27        -4.6487   -3.9663    2.6704 C.3       1 <0>         0.0401
     35 C28        -6.0081   -3.9584    3.3207 C.2       1 <0>         0.5186
     36 O5         -6.9182   -4.5932    2.8312 O.2       1 <0>        -0.5170
     37 N3         -6.2126   -3.2459    4.4464 N.am      1 <0>        -0.8502
     38 O6         -1.3077   -2.7015   -3.4248 O.2       1 <0>        -0.4702
     39 H2          1.6681    1.9263   -3.4877 H         1 <0>         0.0671
     40 H3          0.1949    1.8574   -2.4912 H         1 <0>         0.0646
     41 H4          1.7660    2.2126   -1.7337 H         1 <0>         0.0679
     42 H5         -0.3658   -0.3987   -3.1799 H         1 <0>         0.1363
     43 H6          2.0826   -3.5962   -1.6933 H         1 <0>         0.1317
     44 H7          3.7664   -1.9608   -0.9691 H         1 <0>         0.1269
     45 H8          4.4810   -0.4322    0.2546 H         1 <0>         0.0613
     46 H9          5.2752   -0.5571   -1.3334 H         1 <0>         0.0626
     47 H10         5.9014    1.8696   -1.1570 H         1 <0>         0.0819
     48 H11         5.6811    2.9675    1.0554 H         1 <0>         0.0567
     49 H12         4.0852    2.5433    0.3910 H         1 <0>         0.0627
     50 H13         4.8089    1.5448    1.6745 H         1 <0>         0.0529
     51 H14         7.4816    0.0872   -0.4679 H         1 <0>         0.0582
     52 H15         7.6645    1.5332    0.5539 H         1 <0>         0.0648
     53 H16         6.7922    0.1105    1.1730 H         1 <0>         0.0570
     54 H17         1.1750   -8.5236   -1.2771 H         1 <0>         0.0982
     55 H18         0.9742   -7.3898    0.0803 H         1 <0>         0.0955
     56 H19        -1.4878   -7.6433   -0.0723 H         1 <0>         0.1390
     57 H20        -1.2869   -8.7771   -1.4296 H         1 <0>         0.1344
     58 H21         0.7990   -8.4690    1.5522 H         1 <0>         0.1241
     59 H22        -0.8760   -8.2618    2.1178 H         1 <0>         0.1217
     60 H23        -0.0177   -9.7919    2.4189 H         1 <0>         0.1226
     61 H24        -2.3046  -10.5730   -0.2927 H         1 <0>         0.1232
     62 H25        -1.7993  -10.9997    1.3598 H         1 <0>         0.1224
     63 H26        -2.6576   -9.4696    1.0587 H         1 <0>         0.1216
     64 H27        -2.2915   -6.4065   -1.9645 H         1 <0>         0.1261
     65 H28        -4.3831   -6.2008   -0.6834 H         1 <0>         0.1314
     66 H29        -2.4136   -3.6298    2.1051 H         1 <0>         0.1271
     67 H30        -0.3234   -3.8480    0.8235 H         1 <0>         0.1274
     68 H31        -3.9134   -4.3630    3.3704 H         1 <0>         0.0926
     69 H32        -4.3733   -2.9491    2.3919 H         1 <0>         0.0964
     70 H33        -5.4847   -2.7382    4.8379 H         1 <0>         0.4038
     71 H34        -7.0876   -3.2409    4.8650 H         1 <0>         0.4106
     72 H35         0.0168  -10.1592    0.0630 H         1 <0>         0.4258
@<TRIPOS>BOND
     1    1    2 1
     2    1   39 1
     3    1   40 1
     4    1   41 1
     5    2    7 ar
     6    2    3 ar
     7    3    4 ar
     8    3   42 1
     9    4    5 ar
    10    4   13 1
    11    5    6 ar
    12    5   43 1
    13    6    7 ar
    14    6   44 1
    15    7    8 1
    16    8    9 1
    17    9   10 1
    18    9   45 1
    19    9   46 1
    20   10   11 1
    21   10   12 1
    22   10   47 1
    23   11   48 1
    24   11   49 1
    25   11   50 1
    26   12   51 1
    27   12   52 1
    28   12   53 1
    29   13   14 1
    30   13   38 2
    31   14   20 2
    32   14   15 1
    33   15   17 1
    34   15   27 1
    35   15   16 1
    36   17   22 1
    37   17   18 am
    38   18   19 2
    39   18   20 1
    40   20   21 1
    41   22   23 1
    42   22   54 1
    43   22   55 1
    44   23   24 1
    45   23   56 1
    46   23   57 1
    47   24   25 1
    48   24   26 1
    49   24   72 1
    50   25   58 1
    51   25   59 1
    52   25   60 1
    53   26   61 1
    54   26   62 1
    55   26   63 1
    56   27   32 ar
    57   27   28 ar
    58   28   29 ar
    59   28   64 1
    60   29   30 ar
    61   29   65 1
    62   30   31 ar
    63   30   33 1
    64   31   32 ar
    65   31   66 1
    66   32   67 1
    67   33   34 1
    68   34   35 1
    69   34   68 1
    70   34   69 1
    71   35   36 2
    72   35   37 am
    73   37   70 1
    74   37   71 1
