@<TRIPOS>MOLECULE
ZINC13219336
   52    53     0     0     0
SMALL
USER_CHARGES
3-[3-[2-[[(1R)-1-methoxycarbonyl-3-methyl-butyl]amino]-2-oxo-ethyl]sulfanyl-5-(2-thienyl)-1,2,4-triazol-4-yl]propanoic acid
@<TRIPOS>ATOM
      1 C1          5.4068   13.5792    2.6044 C.3       1 <0>        -0.1549
      2 C2          3.9572   13.8646    2.2067 C.3       1 <0>        -0.0962
      3 C3          3.4119   15.0136    3.0570 C.3       1 <0>        -0.1474
      4 C4          3.9012   14.2533    0.7279 C.3       1 <0>        -0.1183
      5 C5          4.3288   13.0604   -0.1295 C.3       1 <0>         0.1578
      6 H1          5.3114   12.7154    0.1922 H         1 <0>         0.1337
      7 C6          4.3920   13.4785   -1.5760 C.2       1 <0>         0.4455
      8 O1          3.6959   12.9269   -2.3952 O.2       1 <0>        -0.4918
      9 O2          5.2215   14.4637   -1.9542 O.3       1 <0>        -0.3579
     10 C7          5.2299   14.8137   -3.3634 C.3       1 <0>         0.0350
     11 N1          3.3561   11.9756    0.0232 N.am      1 <0>        -0.7054
     12 C8          3.7302   10.6994   -0.1952 C.2       1 <0>         0.5439
     13 O3          4.8721   10.4490   -0.5182 O.2       1 <0>        -0.5128
     14 C9          2.7297    9.5834   -0.0381 C.3       1 <0>        -0.1529
     15 S1          3.5302    8.0003   -0.3972 S.3       1 <0>         0.0995
     16 C10         2.1722    6.9064   -0.1443 C.2       1 <0>         0.1459
     17 N2          0.9533    7.2465    0.2078 N.2       1 <0>        -0.2950
     18 N3          0.2124    6.2011    0.3041 N.2       1 <0>        -0.2631
     19 C11         0.9137    5.1260    0.0189 C.2       1 <0>         0.2632
     20 N4          2.1930    5.5452   -0.2720 N.pl3     1 <0>        -0.4452
     21 C12         3.3365    4.7079   -0.6429 C.3       1 <0>         0.1174
     22 C13         3.3764    4.5438   -2.1636 C.3       1 <0>        -0.1733
     23 C14         4.5526    3.6824   -2.5451 C.2       1 <0>         0.4726
     24 O4          5.2839    3.2447   -1.6887 O.co2     1 <0>        -0.6354
     25 C15         0.4258    3.7375    0.0170 C.2       1 <0>        -0.1002
     26 C16        -0.8658    3.2748    0.0265 C.2       1 <0>        -0.1076
     27 C17        -1.0805    1.9149    0.0166 C.2       1 <0>        -0.1619
     28 C18        -0.0126    1.0758    0.0080 C.2       1 <0>        -0.1715
     29 S2          1.3606    2.2165    0.0010 S.3       1 <0>         0.1074
     30 H2          5.7953   12.7606    1.9985 H         1 <0>         0.0584
     31 H3          6.0111   14.4714    2.4400 H         1 <0>         0.0586
     32 H4          5.4468   13.3023    3.6578 H         1 <0>         0.0585
     33 H5          3.3530   12.9724    2.3710 H         1 <0>         0.0766
     34 H6          2.3792   15.2170    2.7737 H         1 <0>         0.0554
     35 H7          3.4518   14.7367    4.1105 H         1 <0>         0.0581
     36 H8          4.0161   15.9058    2.8927 H         1 <0>         0.0565
     37 H9          4.5746   15.0910    0.5466 H         1 <0>         0.0963
     38 H10         2.8832   14.5423    0.4665 H         1 <0>         0.0775
     39 H11         5.5207   13.9437   -3.9521 H         1 <0>         0.0648
     40 H12         4.2335   15.1386   -3.6630 H         1 <0>         0.0625
     41 H13         5.9417   15.6216   -3.5329 H         1 <0>         0.1026
     42 H14         2.4428   12.1759    0.2816 H         1 <0>         0.4109
     43 H15         1.9020    9.7374   -0.7304 H         1 <0>         0.1300
     44 H16         2.3516    9.5757    0.9842 H         1 <0>         0.1289
     45 H17         4.2582    5.1809   -0.3042 H         1 <0>         0.1076
     46 H18         3.2370    3.7288   -0.1743 H         1 <0>         0.1008
     47 H19         2.4546    4.0708   -2.5023 H         1 <0>         0.0735
     48 H20         3.4759    5.5229   -2.6322 H         1 <0>         0.0780
     49 H21        -1.6976    3.9637    0.0371 H         1 <0>         0.1429
     50 H22        -2.0858    1.5202    0.0190 H         1 <0>         0.1389
     51 H23         0.0021   -0.0041    0.0020 H         1 <0>         0.1900
     52 O5          4.7879    3.4015   -3.8364 O.co2     1 <0>        -0.7586
@<TRIPOS>BOND
     1    1    2 1
     2    1   30 1
     3    1   31 1
     4    1   32 1
     5    2    3 1
     6    2    4 1
     7    2   33 1
     8    3   34 1
     9    3   35 1
    10    3   36 1
    11    4    5 1
    12    4   37 1
    13    4   38 1
    14    5    6 1
    15    5    7 1
    16    5   11 1
    17    7    8 2
    18    7    9 1
    19    9   10 1
    20   10   39 1
    21   10   40 1
    22   10   41 1
    23   11   12 am
    24   11   42 1
    25   12   13 2
    26   12   14 1
    27   14   15 1
    28   14   43 1
    29   14   44 1
    30   15   16 1
    31   16   20 1
    32   16   17 2
    33   17   18 1
    34   18   19 2
    35   19   20 1
    36   19   25 1
    37   20   21 1
    38   21   22 1
    39   21   45 1
    40   21   46 1
    41   22   23 1
    42   22   47 1
    43   22   48 1
    44   23   24 2
    45   23   52 1
    46   25   29 1
    47   25   26 2
    48   26   27 1
    49   26   49 1
    50   27   28 2
    51   27   50 1
    52   28   29 1
    53   28   51 1
