@<TRIPOS>MOLECULE
ZINC59015198
   54    56     0     0     0
SMALL
USER_CHARGES

@<TRIPOS>ATOM
      1 C1         -3.1832    0.5418   -2.2532 C.3       1 <0>        -0.1538
      2 C2         -2.5925   -0.8121   -1.8546 C.3       1 <0>        -0.1191
      3 C3         -1.4541   -1.1733   -2.8109 C.3       1 <0>        -0.1053
      4 C4         -0.8635   -2.5273   -2.4123 C.3       1 <0>        -0.0993
      5 S1          0.4862   -2.9556   -3.5461 S.3       1 <0>        -0.1310
      6 C5          1.0537   -4.5182   -2.9624 C.ar      1 <0>        -0.1133
      7 C6          0.4498   -5.1116   -1.8627 C.ar      1 <0>        -0.1126
      8 C7          0.8964   -6.3375   -1.4071 C.ar      1 <0>        -0.1167
      9 C8          1.9450   -6.9762   -2.0437 C.ar      1 <0>        -0.0997
     10 C9          2.5525   -6.3926   -3.1398 C.ar      1 <0>        -0.1135
     11 C10         2.1076   -5.1656   -3.6077 C.ar      1 <0>         0.1684
     12 N1          2.7186   -4.5748   -4.7220 N.am      1 <0>        -0.6597
     13 C11         3.3551   -5.3432   -5.6280 C.2       1 <0>         0.5392
     14 O1          3.3143   -6.5518   -5.5337 O.2       1 <0>        -0.4957
     15 C12         4.1176   -4.7009   -6.7580 C.3       1 <0>        -0.1641
     16 S2          4.8567   -5.9900   -7.7985 S.3       1 <0>         0.1165
     17 C13         5.7016   -5.0904   -9.0560 C.2       1 <0>         0.2153
     18 N2          6.3967   -5.6295  -10.0633 N.2       1 <0>        -0.5138
     19 C14         6.8973   -4.6736  -10.8175 C.2       1 <0>         0.5629
     20 N3          6.5215   -3.4882  -10.2919 N.pl3     1 <0>        -0.5040
     21 N4          5.7461   -3.7834   -9.1591 N.2       1 <0>        -0.3229
     22 N5          7.6719   -4.8523  -11.9490 N.pl3     1 <0>        -0.5523
     23 N6          7.9875   -6.1458  -12.3848 N.2       1 <0>        -0.1704
     24 C15         8.7146   -6.3136  -13.4470 C.2       1 <0>         0.0869
     25 C16         9.0467   -7.6749  -13.9057 C.ar      1 <0>        -0.0467
     26 C17         9.8338   -7.8593  -15.0451 C.ar      1 <0>        -0.0802
     27 C18        10.1404   -9.1355  -15.4684 C.ar      1 <0>        -0.1220
     28 C19         9.6703  -10.2328  -14.7680 C.ar      1 <0>        -0.0912
     29 C20         8.8901  -10.0591  -13.6391 C.ar      1 <0>        -0.1177
     30 C21         8.5803   -8.7874  -13.1993 C.ar      1 <0>        -0.0152
     31 Cl1         7.6079   -8.5708  -11.7776 Cl        1 <0>        -0.0078
     32 H1         -2.4079    1.3062   -2.2003 H         1 <0>         0.0557
     33 H2         -3.5682    0.4847   -3.2713 H         1 <0>         0.0558
     34 H3         -3.9942    0.7992   -1.5719 H         1 <0>         0.0575
     35 H4         -2.2075   -0.7550   -0.8365 H         1 <0>         0.0649
     36 H5         -3.3678   -1.5765   -1.9075 H         1 <0>         0.0650
     37 H6         -1.8392   -1.2304   -3.8290 H         1 <0>         0.0743
     38 H7         -0.6788   -0.4090   -2.7580 H         1 <0>         0.0741
     39 H8         -0.4784   -2.4702   -1.3942 H         1 <0>         0.0894
     40 H9         -1.6388   -3.2916   -2.4652 H         1 <0>         0.0897
     41 H10        -0.3688   -4.6152   -1.3628 H         1 <0>         0.1266
     42 H11         0.4255   -6.7979   -0.5512 H         1 <0>         0.1280
     43 H12         2.2906   -7.9338   -1.6830 H         1 <0>         0.1312
     44 H13         3.3713   -6.8943   -3.6341 H         1 <0>         0.1526
     45 H14         2.6833   -3.6128   -4.8413 H         1 <0>         0.4152
     46 H15         3.4375   -4.0957   -7.3575 H         1 <0>         0.1268
     47 H16         4.9052   -4.0668   -6.3507 H         1 <0>         0.1276
     48 H17         7.9968   -4.0820  -12.4409 H         1 <0>         0.3974
     49 H18         9.0764   -5.4559  -13.9948 H         1 <0>         0.1270
     50 H19        10.2010   -7.0044  -15.5934 H         1 <0>         0.1362
     51 H20        10.7488   -9.2791  -16.3491 H         1 <0>         0.1336
     52 H21         9.9136  -11.2297  -15.1048 H         1 <0>         0.1343
     53 H22         8.5264  -10.9200  -13.0978 H         1 <0>         0.1375
     54 H23         6.7411   -2.6065  -10.6317 H         1 <0>         0.4385
@<TRIPOS>BOND
     1    1    2 1
     2    1   32 1
     3    1   33 1
     4    1   34 1
     5    2    3 1
     6    2   35 1
     7    2   36 1
     8    3    4 1
     9    3   37 1
    10    3   38 1
    11    4    5 1
    12    4   39 1
    13    4   40 1
    14    5    6 1
    15    6   11 ar
    16    6    7 ar
    17    7    8 ar
    18    7   41 1
    19    8    9 ar
    20    8   42 1
    21    9   10 ar
    22    9   43 1
    23   10   11 ar
    24   10   44 1
    25   11   12 1
    26   12   13 am
    27   12   45 1
    28   13   14 2
    29   13   15 1
    30   15   16 1
    31   15   46 1
    32   15   47 1
    33   16   17 1
    34   17   21 2
    35   17   18 1
    36   18   19 2
    37   19   20 1
    38   19   22 1
    39   20   21 1
    40   20   54 1
    41   22   23 1
    42   22   48 1
    43   23   24 2
    44   24   25 1
    45   24   49 1
    46   25   30 ar
    47   25   26 ar
    48   26   27 ar
    49   26   50 1
    50   27   28 ar
    51   27   51 1
    52   28   29 ar
    53   28   52 1
    54   29   30 ar
    55   29   53 1
    56   30   31 1
