@<TRIPOS>MOLECULE
ZINC33553248
   59    63     0     0     0
SMALL
USER_CHARGES
(4E,5R)-1-(6-ethoxy-1,3-benzothiazol-2-yl)-4-[hydroxy-(4-propoxyphenyl)methylene]-5-(2-thienyl)pyrrolidine-2,3-dione
@<TRIPOS>ATOM
      1 C1         -0.0022    7.8656   -9.4300 C.3       1 <0>        -0.1512
      2 C2          1.3129    7.1295   -9.1662 C.3       1 <0>        -0.1234
      3 C3          1.2848    6.5226   -7.7620 C.3       1 <0>         0.0562
      4 O1          2.5131    5.8351   -7.5156 O.3       1 <0>        -0.3193
      5 C4          2.6516    5.2356   -6.3061 C.ar      1 <0>         0.1278
      6 C5          3.8229    4.5499   -6.0027 C.ar      1 <0>        -0.1656
      7 C6          3.9680    3.9395   -4.7779 C.ar      1 <0>        -0.0466
      8 C7          2.9340    4.0101   -3.8364 C.ar      1 <0>        -0.1146
      9 C8          1.7548    4.6972   -4.1488 C.ar      1 <0>        -0.0124
     10 C9          1.6217    5.3087   -5.3744 C.ar      1 <0>        -0.2144
     11 C10         3.0839    3.3595   -2.5256 C.2       1 <0>         0.4146
     12 C11         2.8377    4.0725   -1.3684 C.2       1 <0>        -0.4946
     13 C12         2.8048    3.5310    0.0421 C.3       1 <0>         0.3158
     14 H1          3.7652    3.0806    0.3331 H         1 <0>         0.1024
     15 N1          2.5060    4.6662    0.9200 N.am      1 <0>        -0.5003
     16 C13         2.3686    5.7731    0.1710 C.2       1 <0>         0.4806
     17 O2          2.1179    6.8793    0.6040 O.2       1 <0>        -0.4808
     18 C14         2.5682    5.4456   -1.2656 C.2       1 <0>         0.3826
     19 O3          2.5085    6.2333   -2.1927 O.3       1 <0>        -0.4797
     20 C15         2.3851    4.6072    2.2978 C.2       1 <0>         0.3983
     21 N2          2.4998    3.5676    3.0903 N.2       1 <0>        -0.5307
     22 C16         2.3601    3.6575    4.4315 C.ar      1 <0>         0.0827
     23 C17         2.4631    2.6238    5.3910 C.ar      1 <0>        -0.0304
     24 C18         2.2875    2.8793    6.7151 C.ar      1 <0>        -0.1868
     25 C19         2.0009    4.1599    7.1788 C.ar      1 <0>         0.1328
     26 C20         1.8918    5.2009    6.2684 C.ar      1 <0>        -0.0925
     27 C21         2.0683    4.9475    4.9308 C.ar      1 <0>        -0.1386
     28 S1          2.0253    5.9264    3.4488 S.3       1 <0>         0.0582
     29 O4          1.8295    4.3879    8.5083 O.3       1 <0>        -0.3110
     30 C22         1.9580    3.2637    9.3812 C.3       1 <0>         0.0516
     31 C23         1.7337    3.7121   10.8267 C.3       1 <0>        -0.1541
     32 C24         1.7285    2.4838    0.1680 C.2       1 <0>        -0.0956
     33 C25         1.8449    1.1335    0.1496 C.2       1 <0>        -0.1410
     34 C26         0.7068    0.3606    0.2834 C.2       1 <0>        -0.1405
     35 C27        -0.4922    0.9759    0.4291 C.2       1 <0>        -0.1979
     36 S2         -0.0310    2.6999    0.3795 S.3       1 <0>         0.0116
     37 O5          3.4620    2.0653   -2.4536 O.2       1 <0>        -0.6165
     38 H2          0.0180    8.3019  -10.4396 H         1 <0>         0.0621
     39 H3         -0.1295    8.6665   -8.6868 H         1 <0>         0.0583
     40 H4         -0.8405    7.1575   -9.3533 H         1 <0>         0.0574
     41 H5          1.4402    6.3286   -9.9094 H         1 <0>         0.0717
     42 H6          2.1512    7.8375   -9.2430 H         1 <0>         0.0725
     43 H7          1.1574    7.3236   -7.0189 H         1 <0>         0.0626
     44 H8          0.4465    5.8146   -7.6853 H         1 <0>         0.0605
     45 H9          4.6198    4.4960   -6.7296 H         1 <0>         0.1252
     46 H10         4.8776    3.4066   -4.5434 H         1 <0>         0.1288
     47 H11         0.9526    4.7508   -3.4276 H         1 <0>         0.1206
     48 H12         0.7142    5.8428   -5.6147 H         1 <0>         0.1220
     49 H13         2.6848    1.6174    5.0678 H         1 <0>         0.1345
     50 H14         2.3721    2.0689    7.4239 H         1 <0>         0.1342
     51 H15         1.6704    6.2016    6.6088 H         1 <0>         0.1379
     52 H16         1.2095    2.5036    9.1127 H         1 <0>         0.0639
     53 H17         2.9666    2.8360    9.2823 H         1 <0>         0.0640
     54 H18         1.8326    2.8468   11.4986 H         1 <0>         0.0786
     55 H19         0.7251    4.1397   10.9256 H         1 <0>         0.0668
     56 H20         2.4822    4.4722   11.0951 H         1 <0>         0.0668
     57 H21         2.8125    0.6684    0.0317 H         1 <0>         0.1331
     58 H22         0.7718   -0.7174    0.2716 H         1 <0>         0.1254
     59 H23        -1.4722    0.5371    0.5447 H         1 <0>         0.1762
@<TRIPOS>BOND
     1    1    2 1
     2    1   38 1
     3    1   39 1
     4    1   40 1
     5    2    3 1
     6    2   41 1
     7    2   42 1
     8    3    4 1
     9    3   43 1
    10    3   44 1
    11    4    5 1
    12    5   10 ar
    13    5    6 ar
    14    6    7 ar
    15    6   45 1
    16    7    8 ar
    17    7   46 1
    18    8    9 ar
    19    8   11 1
    20    9   10 ar
    21    9   47 1
    22   10   48 1
    23   11   12 1
    24   11   37 2
    25   12   18 2
    26   12   13 1
    27   13   14 1
    28   13   15 1
    29   13   32 1
    30   15   16 am
    31   15   20 1
    32   16   17 2
    33   16   18 1
    34   18   19 1
    35   20   28 1
    36   20   21 2
    37   21   22 1
    38   22   27 ar
    39   22   23 ar
    40   23   24 ar
    41   23   49 1
    42   24   25 ar
    43   24   50 1
    44   25   26 ar
    45   25   29 1
    46   26   27 ar
    47   26   51 1
    48   27   28 1
    49   29   30 1
    50   30   31 1
    51   30   52 1
    52   30   53 1
    53   31   54 1
    54   31   55 1
    55   31   56 1
    56   32   36 1
    57   32   33 2
    58   33   34 1
    59   33   57 1
    60   34   35 2
    61   34   58 1
    62   35   36 1
    63   35   59 1
