@<TRIPOS>MOLECULE
ZINC59267216
   52    56     0     0     0
SMALL
USER_CHARGES

@<TRIPOS>ATOM
      1 C1         -0.9688   -0.0424   -3.0599 C.3       1 <0>         0.0244
      2 O1         -0.6324   -0.9825   -2.0375 O.3       1 <0>        -0.3040
      3 C2         -1.5213   -1.1317   -1.0192 C.ar      1 <0>         0.1158
      4 C3         -2.6942   -0.3936   -1.0076 C.ar      1 <0>        -0.1778
      5 C4         -3.5968   -0.5458    0.0283 C.ar      1 <0>        -0.0525
      6 C5         -3.3327   -1.4335    1.0547 C.ar      1 <0>        -0.0870
      7 C6         -2.1641   -2.1734    1.0494 C.ar      1 <0>        -0.0714
      8 C7         -1.2578   -2.0298    0.0101 C.ar      1 <0>         0.0860
      9 O2         -0.1106   -2.7604    0.0002 O.3       1 <0>        -0.3141
     10 C8          1.0283   -2.1888    0.6468 C.3       1 <0>         0.0356
     11 Br1        -1.8060   -3.3857    2.4558 Br        1 <0>        -0.0295
     12 C9         -4.8714    0.2583    0.0390 C.3       1 <0>         0.2142
     13 H1         -4.6790    1.2395    0.4729 H         1 <0>         0.0982
     14 C10        -5.3788    0.4230   -1.3823 C.3       1 <0>        -0.0900
     15 H2         -4.5485    0.6838   -2.0385 H         1 <0>         0.0749
     16 C11        -6.4493    1.5554   -1.4199 C.3       1 <0>        -0.0993
     17 H3         -6.0678    2.5755   -1.3742 H         1 <0>         0.0913
     18 C12        -7.4784    1.1609   -0.3173 C.3       1 <0>        -0.1390
     19 C13        -8.2007   -0.0839   -0.8818 C.3       1 <0>        -0.1224
     20 C14        -7.5341   -0.3292   -2.2705 C.3       1 <0>        -0.0904
     21 H4         -8.1011   -0.9410   -2.9721 H         1 <0>         0.0954
     22 C15        -7.2277    1.1605   -2.7258 C.3       1 <0>        -0.1264
     23 C16        -6.1011   -0.8068   -1.9340 C.3       1 <0>        -0.0231
     24 H5         -5.5972   -1.1559   -2.8353 H         1 <0>         0.0705
     25 C17        -6.2389   -1.9389   -0.9636 C.ar      1 <0>        -0.1315
     26 C18        -6.4253   -3.2142   -1.4294 C.ar      1 <0>        -0.0556
     27 C19        -6.5855   -4.2730   -0.5305 C.ar      1 <0>        -0.1589
     28 C20        -6.5605   -4.0376    0.8493 C.ar      1 <0>        -0.0562
     29 C21        -6.3633   -2.7655    1.3127 C.ar      1 <0>        -0.1816
     30 C22        -6.1880   -1.7261    0.4130 C.ar      1 <0>         0.1829
     31 N1         -5.8911   -0.4448    0.8427 N.pl3     1 <0>        -0.7527
     32 C23        -6.7815   -5.6406   -1.0369 C.2       1 <0>         0.5202
     33 O3         -6.8041   -5.8492   -2.2422 O.co2     1 <0>        -0.6939
     34 O4         -6.9219   -6.5690   -0.2525 O.co2     1 <0>        -0.6931
     35 H6         -0.1771   -0.0213   -3.8088 H         1 <0>         0.1009
     36 H7         -1.9065   -0.3377   -3.5306 H         1 <0>         0.0584
     37 H8         -1.0793    0.9487   -2.6200 H         1 <0>         0.0542
     38 H9         -2.9029    0.3009   -1.8079 H         1 <0>         0.1398
     39 H10        -4.0403   -1.5493    1.8624 H         1 <0>         0.1438
     40 H11         1.8733   -2.8725    0.5659 H         1 <0>         0.0943
     41 H12         1.2800   -1.2419    0.1692 H         1 <0>         0.0446
     42 H13         0.8002   -2.0159    1.6986 H         1 <0>         0.0456
     43 H14        -6.9639    0.9130    0.6111 H         1 <0>         0.0965
     44 H15        -8.1892    1.9709   -0.1540 H         1 <0>         0.0448
     45 H16        -8.0452   -0.9424   -0.2285 H         1 <0>         0.0830
     46 H17        -9.2655    0.1161   -1.0013 H         1 <0>         0.0484
     47 H18        -8.1418    1.7415   -2.8484 H         1 <0>         0.0643
     48 H19        -6.5939    1.2125   -3.6111 H         1 <0>         0.0658
     49 H20        -6.4483   -3.4018   -2.4927 H         1 <0>         0.1183
     50 H21        -6.6964   -4.8542    1.5429 H         1 <0>         0.1228
     51 H22        -6.3443   -2.5722    2.3751 H         1 <0>         0.1109
     52 H23        -6.3319   -0.0416    1.6068 H         1 <0>         0.4045
@<TRIPOS>BOND
     1    1    2 1
     2    1   35 1
     3    1   36 1
     4    1   37 1
     5    2    3 1
     6    3    8 ar
     7    3    4 ar
     8    4    5 ar
     9    4   38 1
    10    5    6 ar
    11    5   12 1
    12    6    7 ar
    13    6   39 1
    14    7    8 ar
    15    7   11 1
    16    8    9 1
    17    9   10 1
    18   10   40 1
    19   10   41 1
    20   10   42 1
    21   12   13 1
    22   12   31 1
    23   12   14 1
    24   14   15 1
    25   14   23 1
    26   14   16 1
    27   16   17 1
    28   16   22 1
    29   16   18 1
    30   18   19 1
    31   18   43 1
    32   18   44 1
    33   19   20 1
    34   19   45 1
    35   19   46 1
    36   20   21 1
    37   20   22 1
    38   20   23 1
    39   22   47 1
    40   22   48 1
    41   23   24 1
    42   23   25 1
    43   25   30 ar
    44   25   26 ar
    45   26   27 ar
    46   26   49 1
    47   27   28 ar
    48   27   32 1
    49   28   29 ar
    50   28   50 1
    51   29   30 ar
    52   29   51 1
    53   30   31 1
    54   31   52 1
    55   32   33 2
    56   32   34 1
