@<TRIPOS>MOLECULE
ZINC02354360
   66    69     0     0     0
SMALL
USER_CHARGES
N-[(2,4-dihydroxyphenyl)methyleneamino]-2-[[4-(p-tolyl)-5-(4-tert-butylphenyl)-1,2,4-triazol-3-yl]sulfanyl]acetamide
@<TRIPOS>ATOM
      1 C1         -2.2420   14.4558    0.1211 C.3       1 <0>        -0.1212
      2 C2         -3.1338   13.2410    0.1122 C.ar      1 <0>        -0.0619
      3 C3         -3.1381   12.3962   -0.9825 C.ar      1 <0>        -0.1052
      4 C4         -3.9541   11.2818   -0.9934 C.ar      1 <0>        -0.0939
      5 C5         -4.7707   11.0105    0.0961 C.ar      1 <0>         0.0910
      6 C6         -4.7683   11.8636    1.1913 C.ar      1 <0>        -0.0893
      7 C7         -3.9464   12.9736    1.1986 C.ar      1 <0>        -0.1072
      8 N1         -5.6002    9.8805    0.0878 N.pl3     1 <0>        -0.4114
      9 C8         -6.9779    9.8583    0.0897 C.2       1 <0>         0.2418
     10 N2         -7.3424    8.5970    0.0846 N.2       1 <0>        -0.2657
     11 N3         -6.3047    7.8392    0.0749 N.2       1 <0>        -0.2875
     12 C9         -5.2113    8.5689    0.0733 C.2       1 <0>         0.1473
     13 S1         -3.5544    7.9697    0.0622 S.3       1 <0>         0.1044
     14 C10        -3.8651    6.1866    0.0540 C.3       1 <0>        -0.1509
     15 C11        -2.5516    5.4479    0.0437 C.2       1 <0>         0.5532
     16 O1         -1.5079    6.0663    0.0422 O.2       1 <0>        -0.4816
     17 N4         -2.5365    4.1002    0.0363 N.am      1 <0>        -0.5813
     18 N5         -1.3154    3.4134    0.0268 N.2       1 <0>        -0.2037
     19 C12        -1.3008    2.1152    0.0197 C.2       1 <0>         0.1083
     20 C13        -0.0169    1.3932    0.0097 C.ar      1 <0>        -0.0975
     21 C14         0.0021   -0.0041    0.0020 C.ar      1 <0>        -0.0558
     22 C15         1.2049   -0.6755   -0.0131 C.ar      1 <0>        -0.1600
     23 C16         2.4012    0.0322   -0.0212 C.ar      1 <0>         0.1423
     24 C17         2.3931    1.4194   -0.0136 C.ar      1 <0>        -0.1822
     25 C18         1.1911    2.1051    0.0020 C.ar      1 <0>         0.1668
     26 O2          1.1816    3.4631    0.0089 O.3       1 <0>        -0.4711
     27 O3          3.5831   -0.6373   -0.0369 O.3       1 <0>        -0.4974
     28 C19        -7.8757   11.0324    0.1009 C.ar      1 <0>        -0.0305
     29 C20        -7.3757   12.3000   -0.2019 C.ar      1 <0>        -0.0990
     30 C21        -8.2202   13.3909   -0.1948 C.ar      1 <0>        -0.1186
     31 C22        -9.5576   13.2323    0.1224 C.ar      1 <0>        -0.0497
     32 C23       -10.0583   11.9794    0.4291 C.ar      1 <0>        -0.1154
     33 C24        -9.2259   10.8794    0.4200 C.ar      1 <0>        -0.0683
     34 C25       -10.4728   14.4294    0.1343 C.3       1 <0>        -0.0327
     35 C26       -11.0709   14.6002    1.5322 C.3       1 <0>        -0.1399
     36 C27        -9.6779   15.6829   -0.2369 C.3       1 <0>        -0.1463
     37 C28       -11.5989   14.2207   -0.8802 C.3       1 <0>        -0.1403
     38 H1         -2.7795   15.3042   -0.3024 H         1 <0>         0.0777
     39 H2         -1.9507   14.6852    1.1461 H         1 <0>         0.0724
     40 H3         -1.3507   14.2566   -0.4739 H         1 <0>         0.0729
     41 H4         -2.5027   12.6079   -1.8298 H         1 <0>         0.1382
     42 H5         -3.9570   10.6224   -1.8487 H         1 <0>         0.1339
     43 H6         -5.4055   11.6573    2.0386 H         1 <0>         0.1312
     44 H7         -3.9413   13.6356    2.0519 H         1 <0>         0.1372
     45 H8         -4.4379    5.9217   -0.8348 H         1 <0>         0.1321
     46 H9         -4.4295    5.9120    0.9451 H         1 <0>         0.1321
     47 H10        -3.3710    3.6058    0.0376 H         1 <0>         0.3888
     48 H11        -2.2299    1.5647    0.0211 H         1 <0>         0.1241
     49 H12        -0.9255   -0.5571    0.0083 H         1 <0>         0.1389
     50 H13         1.2184   -1.7554   -0.0190 H         1 <0>         0.1377
     51 H14         3.3253    1.9645   -0.0203 H         1 <0>         0.1397
     52 H15         1.1871    3.8519    0.8943 H         1 <0>         0.3960
     53 H16         3.9163   -0.8261   -0.9248 H         1 <0>         0.3972
     54 H17        -6.3312   12.4258   -0.4457 H         1 <0>         0.1279
     55 H18        -7.8356   14.3716   -0.4329 H         1 <0>         0.1328
     56 H19       -11.1032   11.8624    0.6759 H         1 <0>         0.1304
     57 H20        -9.6180    9.9020    0.6596 H         1 <0>         0.1362
     58 H21       -10.2687   14.7490    2.2550 H         1 <0>         0.0570
     59 H22       -11.7329   15.4661    1.5408 H         1 <0>         0.0610
     60 H23       -11.6373   13.7073    1.7967 H         1 <0>         0.0586
     61 H24        -9.2518   15.5612   -1.2327 H         1 <0>         0.0594
     62 H25       -10.3399   16.5488   -0.2282 H         1 <0>         0.0608
     63 H26        -8.8756   15.8316    0.4859 H         1 <0>         0.0593
     64 H27       -12.1653   13.3277   -0.6157 H         1 <0>         0.0587
     65 H28       -12.2609   15.0866   -0.8715 H         1 <0>         0.0610
     66 H29       -11.1728   14.0990   -1.8760 H         1 <0>         0.0573
@<TRIPOS>BOND
     1    1    2 1
     2    1   38 1
     3    1   39 1
     4    1   40 1
     5    2    7 ar
     6    2    3 ar
     7    3    4 ar
     8    3   41 1
     9    4    5 ar
    10    4   42 1
    11    5    6 ar
    12    5    8 1
    13    6    7 ar
    14    6   43 1
    15    7   44 1
    16    8   12 1
    17    8    9 1
    18    9   10 2
    19    9   28 1
    20   10   11 1
    21   11   12 2
    22   12   13 1
    23   13   14 1
    24   14   15 1
    25   14   45 1
    26   14   46 1
    27   15   16 2
    28   15   17 am
    29   17   18 1
    30   17   47 1
    31   18   19 2
    32   19   20 1
    33   19   48 1
    34   20   25 ar
    35   20   21 ar
    36   21   22 ar
    37   21   49 1
    38   22   23 ar
    39   22   50 1
    40   23   24 ar
    41   23   27 1
    42   24   25 ar
    43   24   51 1
    44   25   26 1
    45   26   52 1
    46   27   53 1
    47   28   33 ar
    48   28   29 ar
    49   29   30 ar
    50   29   54 1
    51   30   31 ar
    52   30   55 1
    53   31   32 ar
    54   31   34 1
    55   32   33 ar
    56   32   56 1
    57   33   57 1
    58   34   35 1
    59   34   36 1
    60   34   37 1
    61   35   58 1
    62   35   59 1
    63   35   60 1
    64   36   61 1
    65   36   62 1
    66   36   63 1
    67   37   64 1
    68   37   65 1
    69   37   66 1
