@<TRIPOS>MOLECULE
ZINC12050807
   52    55     0     0     0
SMALL
USER_CHARGES
N-[4-[5-(acetylaminomethyl)-2-furyl]thiazol-2-yl]-4-[(4-methylthiazol-2-yl)sulfanylmethyl]benzamide
@<TRIPOS>ATOM
      1 C1         -0.0127    1.0858    0.0080 C.3       1 <0>        -0.0839
      2 C2         -0.7181    1.5718    1.2479 C.2       1 <0>         0.0696
      3 C3         -2.0549    1.7895    1.2439 C.2       1 <0>        -0.2120
      4 S1         -2.3089    2.3322    2.9272 S.3       1 <0>         0.0534
      5 C4         -0.6566    2.2264    3.4509 C.2       1 <0>         0.0454
      6 N1         -0.0465    1.8002    2.3607 N.2       1 <0>        -0.4870
      7 S2          0.0294    2.5933    5.0319 S.3       1 <0>         0.0666
      8 C5         -1.4678    3.0988    5.9145 C.3       1 <0>        -0.1027
      9 C6         -1.1145    3.4695    7.3318 C.ar      1 <0>        -0.0454
     10 C7         -1.1401    2.5043    8.3229 C.ar      1 <0>        -0.1024
     11 C8         -0.8122    2.8357    9.6213 C.ar      1 <0>        -0.0795
     12 C9         -0.4651    4.1506    9.9363 C.ar      1 <0>        -0.1266
     13 C10        -0.4467    5.1207    8.9325 C.ar      1 <0>        -0.0465
     14 C11        -0.7713    4.7746    7.6372 C.ar      1 <0>        -0.1030
     15 C12        -0.1190    4.5143   11.3264 C.2       1 <0>         0.5652
     16 O1          0.1825    5.6602   11.5977 O.2       1 <0>        -0.4886
     17 N2         -0.1377    3.5754   12.2931 N.am      1 <0>        -0.6046
     18 C13         0.1874    3.9170   13.5989 C.2       1 <0>         0.3214
     19 N3          0.2281    3.1542   14.6750 N.2       1 <0>        -0.5227
     20 C14         0.5655    3.6540   15.8616 C.2       1 <0>         0.1437
     21 C15         0.8751    4.9839   15.9627 C.2       1 <0>        -0.2219
     22 S3          0.6689    5.5041   14.2646 S.3       1 <0>         0.1412
     23 C16         0.6050    2.7841   17.0557 C.2       1 <0>         0.0578
     24 C17         0.3153    1.4561   17.0853 C.2       1 <0>        -0.1641
     25 C18         0.4851    1.0329   18.4197 C.2       1 <0>        -0.1787
     26 C19         0.8570    2.1135   19.1320 C.2       1 <0>        -0.0302
     27 O2          0.9286    3.1705   18.3046 O.3       1 <0>        -0.1620
     28 C20         1.1456    2.1344   20.6109 C.3       1 <0>         0.2022
     29 N4          2.5656    1.8525   20.8354 N.am      1 <0>        -0.7315
     30 C21         3.0559    1.8194   22.0904 C.2       1 <0>         0.5130
     31 O3          2.3215    2.0229   23.0339 O.2       1 <0>        -0.5433
     32 C22         4.5166    1.5294   22.3213 C.3       1 <0>        -0.1728
     33 H1          0.0021   -0.0041    0.0020 H         1 <0>         0.0774
     34 H2          1.0099    1.4631    0.0003 H         1 <0>         0.0768
     35 H3         -0.5399    1.4469   -0.8751 H         1 <0>         0.0773
     36 H4         -2.7703    1.6674    0.4441 H         1 <0>         0.2007
     37 H5         -1.9117    3.9592    5.4138 H         1 <0>         0.1115
     38 H6         -2.1812    2.2746    5.9216 H         1 <0>         0.1112
     39 H7         -1.4131    1.4883    8.0787 H         1 <0>         0.1400
     40 H8         -0.8284    2.0805   10.3932 H         1 <0>         0.1337
     41 H9         -0.1787    6.1397    9.1695 H         1 <0>         0.1469
     42 H10        -0.7572    5.5240    6.8596 H         1 <0>         0.1411
     43 H11        -0.3783    2.6610   12.0765 H         1 <0>         0.4276
     44 H12         1.1673    5.5593   16.8287 H         1 <0>         0.2036
     45 H13         0.0155    0.8431   16.2481 H         1 <0>         0.1575
     46 H14         0.3400    0.0323   18.7995 H         1 <0>         0.1560
     47 H15         0.9020    3.1170   21.0149 H         1 <0>         0.0873
     48 H16         0.5415    1.3765   21.1097 H         1 <0>         0.1031
     49 H17         3.1530    1.6897   20.0808 H         1 <0>         0.4054
     50 H18         5.0769    2.4644   22.3223 H         1 <0>         0.0959
     51 H19         4.6405    1.0307   23.2826 H         1 <0>         0.0961
     52 H20         4.8889    0.8835   21.5262 H         1 <0>         0.0811
@<TRIPOS>BOND
     1    1    2 1
     2    1   33 1
     3    1   34 1
     4    1   35 1
     5    2    6 1
     6    2    3 2
     7    3    4 1
     8    3   36 1
     9    4    5 1
    10    5    6 2
    11    5    7 1
    12    7    8 1
    13    8    9 1
    14    8   37 1
    15    8   38 1
    16    9   14 ar
    17    9   10 ar
    18   10   11 ar
    19   10   39 1
    20   11   12 ar
    21   11   40 1
    22   12   13 ar
    23   12   15 1
    24   13   14 ar
    25   13   41 1
    26   14   42 1
    27   15   16 2
    28   15   17 am
    29   17   18 1
    30   17   43 1
    31   18   22 1
    32   18   19 2
    33   19   20 1
    34   20   21 2
    35   20   23 1
    36   21   22 1
    37   21   44 1
    38   23   27 1
    39   23   24 2
    40   24   25 1
    41   24   45 1
    42   25   26 2
    43   25   46 1
    44   26   27 1
    45   26   28 1
    46   28   29 1
    47   28   47 1
    48   28   48 1
    49   29   30 am
    50   29   49 1
    51   30   31 2
    52   30   32 1
    53   32   50 1
    54   32   51 1
    55   32   52 1
