@<TRIPOS>MOLECULE
ZINC16431557
   45    49     0     0     0
SMALL
USER_CHARGES
2-[(E)-[2-(5-bromo-1-naphthyl)-1,3-benzoxazol-5-yl]iminomethyl]-4-nitro-phenol
@<TRIPOS>ATOM
      1 C1         -1.0750    5.6505   -0.7697 C.ar      1 <0>        -0.1075
      2 C2         -0.0268    5.2453    0.0015 C.ar      1 <0>        -0.0894
      3 C3         -0.1548    4.1167    0.8289 C.ar      1 <0>        -0.0331
      4 C4         -1.3790    3.4056    0.8551 C.ar      1 <0>        -0.0199
      5 C5         -1.5035    2.2768    1.6764 C.ar      1 <0>        -0.0865
      6 C6         -0.4509    1.8828    2.4466 C.ar      1 <0>        -0.1072
      7 C7          0.7545    2.5801    2.4231 C.ar      1 <0>        -0.0755
      8 C8          0.9129    3.6786    1.6331 C.ar      1 <0>        -0.0809
      9 Br1         2.5587    4.6097    1.6183 Br        1 <0>        -0.0399
     10 C9         -2.4544    3.8472    0.0443 C.ar      1 <0>        -0.0083
     11 C10        -2.2835    4.9657   -0.7578 C.ar      1 <0>        -0.0523
     12 C11        -3.7399    3.1247    0.0523 C.2       1 <0>         0.2775
     13 N1         -4.9178    3.6887    0.1581 N.2       1 <0>        -0.4527
     14 C12        -5.8693    2.7205    0.1284 C.ar      1 <0>         0.0392
     15 C13        -7.2625    2.7403    0.2016 C.ar      1 <0>        -0.0611
     16 C14        -7.9707    1.5443    0.1419 C.ar      1 <0>         0.1148
     17 C15        -7.2869    0.3289    0.0086 C.ar      1 <0>        -0.1294
     18 C16        -5.9126    0.3085   -0.0641 C.ar      1 <0>        -0.0767
     19 C17        -5.1945    1.4947   -0.0053 C.ar      1 <0>        -0.0128
     20 O1         -3.8756    1.7890   -0.0539 O.3       1 <0>        -0.2085
     21 N2         -9.3379    1.5552    0.2130 N.2       1 <0>        -0.4578
     22 C18       -10.0392    0.8289   -0.6115 C.2       1 <0>         0.2373
     23 C19       -11.5076    0.8406   -0.5351 C.ar      1 <0>        -0.2315
     24 C20       -12.2644    0.0630   -1.4175 C.ar      1 <0>         0.0353
     25 C21       -13.6400    0.0790   -1.3401 C.ar      1 <0>        -0.1798
     26 C22       -14.2778    0.8620   -0.3918 C.ar      1 <0>        -0.0127
     27 C23       -13.5429    1.6349    0.4861 C.ar      1 <0>        -0.2369
     28 C24       -12.1582    1.6275    0.4274 C.ar      1 <0>         0.3225
     29 N3        -14.4400   -0.7447   -2.2742 N.pl3     1 <0>         0.0676
     30 O2        -13.8821   -1.4345   -3.1087 O.2       1 <0>        -0.2245
     31 O3        -15.6561   -0.7327   -2.2082 O.3       1 <0>        -0.2220
     32 H1         -0.9638    6.5193   -1.4016 H         1 <0>         0.1397
     33 H2          0.9040    5.7925   -0.0236 H         1 <0>         0.1406
     34 H3         -2.4309    1.7239    1.7014 H         1 <0>         0.1349
     35 H4         -0.5512    1.0146    3.0812 H         1 <0>         0.1373
     36 H5          1.5752    2.2454    3.0402 H         1 <0>         0.1373
     37 H6         -3.0981    5.3079   -1.3789 H         1 <0>         0.1408
     38 H7         -7.7878    3.6783    0.3044 H         1 <0>         0.1423
     39 H8         -7.8410   -0.5969   -0.0377 H         1 <0>         0.1402
     40 H9         -5.3922   -0.6323   -0.1668 H         1 <0>         0.1347
     41 H10        -9.5418    0.2186   -1.3507 H         1 <0>         0.0929
     42 H11       -11.7713   -0.5487   -2.1586 H         1 <0>         0.1308
     43 H12       -15.3565    0.8679   -0.3383 H         1 <0>         0.1264
     44 H13       -14.0480    2.2425    1.2224 H         1 <0>         0.1237
     45 O4        -11.4350    2.3822    1.2931 O.3       1 <0>        -0.6088
@<TRIPOS>BOND
     1    1   11 ar
     2    1    2 ar
     3    1   32 1
     4    2    3 ar
     5    2   33 1
     6    3    8 ar
     7    3    4 ar
     8    4    5 ar
     9    4   10 ar
    10    5    6 ar
    11    5   34 1
    12    6    7 ar
    13    6   35 1
    14    7    8 ar
    15    7   36 1
    16    8    9 1
    17   10   11 ar
    18   10   12 1
    19   11   37 1
    20   12   20 1
    21   12   13 2
    22   13   14 1
    23   14   19 ar
    24   14   15 ar
    25   15   16 ar
    26   15   38 1
    27   16   17 ar
    28   16   21 1
    29   17   18 ar
    30   17   39 1
    31   18   19 ar
    32   18   40 1
    33   19   20 1
    34   21   22 2
    35   22   23 1
    36   22   41 1
    37   23   28 ar
    38   23   24 ar
    39   24   25 ar
    40   24   42 1
    41   25   26 ar
    42   25   29 1
    43   26   27 ar
    44   26   43 1
    45   27   28 ar
    46   27   44 1
    47   28   45 1
    48   29   30 2
    49   29   31 1
