@<TRIPOS>MOLECULE
ZINC16933716
   46    48     0     0     0
SMALL
USER_CHARGES
2-[[(5Z)-5-[(4-isopropylphenyl)methylene]-4-oxo-thiazol-2-yl]-methyl-amino]benzoic acid
@<TRIPOS>ATOM
      1 C1         -9.4830   -5.9522    3.2957 C.3       1 <0>        -0.1442
      2 C2         -8.9977   -4.9209    2.2750 C.3       1 <0>        -0.0590
      3 C3        -10.0635   -3.8375    2.0985 C.3       1 <0>        -0.1451
      4 C4         -7.7188   -4.2923    2.7652 C.ar      1 <0>        -0.0655
      5 C5         -6.5640   -4.4028    2.0101 C.ar      1 <0>        -0.1138
      6 C6         -5.3901   -3.8299    2.4509 C.ar      1 <0>        -0.0923
      7 C7         -5.3681   -3.1355    3.6657 C.ar      1 <0>        -0.0790
      8 C8         -6.5384   -3.0338    4.4260 C.ar      1 <0>        -0.0873
      9 C9         -7.7055   -3.6072    3.9679 C.ar      1 <0>        -0.1185
     10 C10        -4.1208   -2.5215    4.1434 C.2       1 <0>         0.0223
     11 C11        -3.0345   -2.4749    3.3333 C.2       1 <0>        -0.2117
     12 C12        -1.6401   -2.0692    3.6359 C.2       1 <0>         0.5523
     13 O1         -1.3032   -1.7029    4.7501 O.2       1 <0>        -0.4817
     14 N1         -0.7864   -2.1318    2.6382 N.2       1 <0>        -0.6621
     15 C13        -1.1399   -2.5217    1.4239 C.2       1 <0>         0.5105
     16 S1         -2.8797   -2.8854    1.5995 S.3       1 <0>        -0.0499
     17 N2         -0.3577   -2.6269    0.3024 N.pl3     1 <0>        -0.4496
     18 C14        -0.9431   -3.0894   -0.9583 C.3       1 <0>         0.0959
     19 C15         0.9916   -2.2944    0.3620 C.ar      1 <0>         0.1395
     20 C16         1.9354   -3.2614    0.6837 C.ar      1 <0>        -0.1142
     21 C17         3.2735   -2.9294    0.7413 C.ar      1 <0>        -0.1178
     22 C18         3.6868   -1.6325    0.4802 C.ar      1 <0>        -0.1221
     23 C19         2.7655   -0.6596    0.1599 C.ar      1 <0>        -0.0738
     24 C20         1.4066   -0.9799    0.0970 C.ar      1 <0>        -0.0930
     25 C21         0.4165    0.0542   -0.2514 C.2       1 <0>         0.4897
     26 O2         -0.7636   -0.2296   -0.3100 O.co2     1 <0>        -0.6217
     27 H1         -9.6630   -5.4604    4.2517 H         1 <0>         0.0570
     28 H2        -10.4080   -6.4069    2.9412 H         1 <0>         0.0576
     29 H3         -8.7237   -6.7240    3.4215 H         1 <0>         0.0564
     30 H4         -8.8177   -5.4127    1.3191 H         1 <0>         0.0788
     31 H5        -10.2435   -3.3457    3.0544 H         1 <0>         0.0571
     32 H6         -9.7178   -3.1028    1.3713 H         1 <0>         0.0577
     33 H7        -10.9885   -4.2922    1.7439 H         1 <0>         0.0577
     34 H8         -6.5827   -4.9390    1.0728 H         1 <0>         0.1264
     35 H9         -4.4901   -3.9164    1.8603 H         1 <0>         0.1349
     36 H10        -6.5286   -2.5034    5.3668 H         1 <0>         0.1299
     37 H11        -8.6107   -3.5255    4.5512 H         1 <0>         0.1250
     38 H12        -4.0697   -2.1074    5.1395 H         1 <0>         0.1560
     39 H13        -0.8602   -4.1744   -1.0210 H         1 <0>         0.0679
     40 H14        -1.9939   -2.8024   -0.9979 H         1 <0>         0.0831
     41 H15        -0.4108   -2.6355   -1.7942 H         1 <0>         0.0906
     42 H16         1.6216   -4.2743    0.8886 H         1 <0>         0.1204
     43 H17         4.0035   -3.6851    0.9912 H         1 <0>         0.1231
     44 H18         4.7366   -1.3834    0.5277 H         1 <0>         0.1229
     45 H19         3.0931    0.3494   -0.0430 H         1 <0>         0.1373
     46 O3          0.8196    1.3149   -0.5051 O.co2     1 <0>        -0.7479
@<TRIPOS>BOND
     1    1    2 1
     2    1   27 1
     3    1   28 1
     4    1   29 1
     5    2    3 1
     6    2    4 1
     7    2   30 1
     8    3   31 1
     9    3   32 1
    10    3   33 1
    11    4    9 ar
    12    4    5 ar
    13    5    6 ar
    14    5   34 1
    15    6    7 ar
    16    6   35 1
    17    7    8 ar
    18    7   10 1
    19    8    9 ar
    20    8   36 1
    21    9   37 1
    22   10   11 2
    23   10   38 1
    24   11   16 1
    25   11   12 1
    26   12   13 2
    27   12   14 1
    28   14   15 2
    29   15   16 1
    30   15   17 1
    31   17   18 1
    32   17   19 1
    33   18   39 1
    34   18   40 1
    35   18   41 1
    36   19   24 ar
    37   19   20 ar
    38   20   21 ar
    39   20   42 1
    40   21   22 ar
    41   21   43 1
    42   22   23 ar
    43   22   44 1
    44   23   24 ar
    45   23   45 1
    46   24   25 1
    47   25   26 2
    48   25   46 1
