@<TRIPOS>MOLECULE
ZINC10122737
   57    58     0     0     0
SMALL
USER_CHARGES
3-bromo-N-[[2-(butylcarbamoyl)phenyl]carbamothioyl]-4-(2-methoxyethoxy)benzamide
@<TRIPOS>ATOM
      1 C1        -11.5189   -2.2375    4.6264 C.3       1 <0>        -0.1537
      2 C2        -10.1844   -1.7947    4.0230 C.3       1 <0>        -0.1216
      3 C3        -10.3505   -0.4206    3.3709 C.3       1 <0>        -0.1336
      4 C4         -9.0161    0.0222    2.7675 C.3       1 <0>         0.1177
      5 N1         -9.1751    1.3379    2.1430 N.am      1 <0>        -0.7222
      6 C5         -8.1237    1.9308    1.5435 C.2       1 <0>         0.5642
      7 O1         -7.0431    1.3736    1.5208 O.2       1 <0>        -0.5480
      8 C6         -8.2838    3.2554    0.9148 C.ar      1 <0>        -0.1439
      9 C7         -9.4894    3.9504    1.0375 C.ar      1 <0>        -0.0858
     10 C8         -9.6325    5.1877    0.4483 C.ar      1 <0>        -0.1146
     11 C9         -8.5858    5.7477   -0.2667 C.ar      1 <0>        -0.0846
     12 C10        -7.3869    5.0758   -0.3918 C.ar      1 <0>        -0.0758
     13 C11        -7.2261    3.8252    0.1903 C.ar      1 <0>         0.1789
     14 N2         -6.0197    3.1431    0.0605 N.pl3     1 <0>        -0.6054
     15 C12        -4.8558    3.7830    0.2890 C.2       1 <0>         0.5195
     16 S1         -4.8530    5.4628    0.6195 S.2       1 <0>        -0.4934
     17 N3         -3.6940    3.1004    0.2575 N.am      1 <0>        -0.6373
     18 C13        -2.5301    3.7403    0.4860 C.2       1 <0>         0.5416
     19 O2         -2.5281    4.9331    0.7206 O.2       1 <0>        -0.3998
     20 C14        -1.2585    2.9933    0.4514 C.ar      1 <0>        -0.1738
     21 C15        -1.2581    1.6228    0.1758 C.ar      1 <0>        -0.0307
     22 C16        -0.0698    0.9277    0.1504 C.ar      1 <0>        -0.2107
     23 C17         1.1298    1.5888    0.3868 C.ar      1 <0>         0.1925
     24 C18         1.1349    2.9533    0.6549 C.ar      1 <0>        -0.1354
     25 C19        -0.0504    3.6550    0.6882 C.ar      1 <0>         0.0168
     26 Br1         2.7705    3.8468    0.9750 Br        1 <0>        -0.0174
     27 O3          2.2993    0.9009    0.3553 O.3       1 <0>        -0.2844
     28 C20         2.2217   -0.4979    0.0735 C.3       1 <0>         0.0552
     29 C21         3.6290   -1.0983    0.0803 C.3       1 <0>         0.0614
     30 O4          4.1792   -1.0077    1.3960 O.3       1 <0>        -0.3841
     31 C22         5.4988   -1.5434    1.5124 C.3       1 <0>         0.0307
     32 H1        -11.4006   -3.2164    5.0910 H         1 <0>         0.0572
     33 H2        -11.8355   -1.5144    5.3781 H         1 <0>         0.0553
     34 H3        -12.2713   -2.2971    3.8399 H         1 <0>         0.0551
     35 H4         -9.8678   -2.5177    3.2713 H         1 <0>         0.0653
     36 H5         -9.4321   -1.7350    4.8094 H         1 <0>         0.0656
     37 H6        -10.6671    0.3025    4.1225 H         1 <0>         0.0708
     38 H7        -11.1029   -0.4802    2.5844 H         1 <0>         0.0707
     39 H8         -8.6994   -0.7009    2.0158 H         1 <0>         0.0701
     40 H9         -8.2637    0.0818    3.5539 H         1 <0>         0.0700
     41 H10       -10.0371    1.7823    2.1611 H         1 <0>         0.4026
     42 H11       -10.3081    3.5186    1.5939 H         1 <0>         0.1300
     43 H12       -10.5651    5.7239    0.5444 H         1 <0>         0.1339
     44 H13        -8.7076    6.7181   -0.7250 H         1 <0>         0.1366
     45 H14        -6.5744    5.5210   -0.9468 H         1 <0>         0.1524
     46 H15        -6.0167    2.2072   -0.1945 H         1 <0>         0.4159
     47 H16        -3.6956    2.1487    0.0702 H         1 <0>         0.4100
     48 H17        -2.1892    1.1090   -0.0124 H         1 <0>         0.1326
     49 H18        -0.0695   -0.1320   -0.0578 H         1 <0>         0.1459
     50 H19        -0.0460    4.7147    0.8965 H         1 <0>         0.1578
     51 H20         1.6137   -0.9885    0.8336 H         1 <0>         0.0787
     52 H21         1.7680   -0.6465   -0.9064 H         1 <0>         0.0848
     53 H22         3.5791   -2.1445   -0.2214 H         1 <0>         0.0755
     54 H23         4.2618   -0.5490   -0.6168 H         1 <0>         0.0647
     55 H24         5.8449   -1.4368    2.5404 H         1 <0>         0.0892
     56 H25         5.4877   -2.5989    1.2404 H         1 <0>         0.0424
     57 H26         6.1704   -1.0033    0.8450 H         1 <0>         0.0443
@<TRIPOS>BOND
     1    1    2 1
     2    1   32 1
     3    1   33 1
     4    1   34 1
     5    2    3 1
     6    2   35 1
     7    2   36 1
     8    3    4 1
     9    3   37 1
    10    3   38 1
    11    4    5 1
    12    4   39 1
    13    4   40 1
    14    5    6 am
    15    5   41 1
    16    6    7 2
    17    6    8 1
    18    8   13 ar
    19    8    9 ar
    20    9   10 ar
    21    9   42 1
    22   10   11 ar
    23   10   43 1
    24   11   12 ar
    25   11   44 1
    26   12   13 ar
    27   12   45 1
    28   13   14 1
    29   14   15 1
    30   14   46 1
    31   15   16 2
    32   15   17 1
    33   17   18 am
    34   17   47 1
    35   18   19 2
    36   18   20 1
    37   20   25 ar
    38   20   21 ar
    39   21   22 ar
    40   21   48 1
    41   22   23 ar
    42   22   49 1
    43   23   24 ar
    44   23   27 1
    45   24   25 ar
    46   24   26 1
    47   25   50 1
    48   27   28 1
    49   28   29 1
    50   28   51 1
    51   28   52 1
    52   29   30 1
    53   29   53 1
    54   29   54 1
    55   30   31 1
    56   31   55 1
    57   31   56 1
    58   31   57 1
