@<TRIPOS>MOLECULE
ZINC32972352
   55    57     0     0     0
SMALL
USER_CHARGES

@<TRIPOS>ATOM
      1 C1          0.6884   -1.0686    2.3744 C.3       1 <0>        -0.1432
      2 C2          0.3559   -0.7121    0.9242 C.3       1 <0>        -0.0724
      3 C3          0.9874    0.6109    0.5747 C.ar      1 <0>        -0.1603
      4 C4          0.2562    1.7774    0.6879 C.ar      1 <0>        -0.0825
      5 C5          0.8348    2.9915    0.3675 C.ar      1 <0>        -0.1870
      6 C6          2.1466    3.0425   -0.0677 C.ar      1 <0>        -0.0884
      7 C7          2.8830    1.8800   -0.1831 C.ar      1 <0>        -0.1681
      8 C8          2.3066    0.6592    0.1440 C.ar      1 <0>         0.2440
      9 N1          3.0515   -0.5195    0.0337 N.pl3     1 <0>        -0.7065
     10 C9          4.4137   -0.4622   -0.0360 C.2       1 <0>         0.6095
     11 N2          5.1136    0.2649    0.8816 N.2       1 <0>        -0.6557
     12 C10         4.5725    0.4593    2.2291 C.3       1 <0>         0.1639
     13 C11         5.6060    1.1351    3.0928 C.2       1 <0>        -0.1814
     14 C12         6.5779    0.4935    3.8676 C.2       1 <0>         0.0861
     15 N3          7.2880    1.4101    4.4737 N.2       1 <0>        -0.3141
     16 N4          6.7898    2.6658    4.1032 N.pl3     1 <0>        -0.3861
     17 C13         5.7617    2.4699    3.2513 C.2       1 <0>         0.0817
     18 C14         4.9330    3.5449    2.5966 C.3       1 <0>        -0.0853
     19 C15         7.2987    3.9628    4.5559 C.3       1 <0>         0.1091
     20 C16         6.7732   -0.9962    3.9842 C.3       1 <0>        -0.0633
     21 N5          5.0557   -1.1125   -0.9947 N.2       1 <0>        -0.6834
     22 C17         4.3668   -1.7127   -1.9742 C.2       1 <0>         0.5050
     23 O1          3.1590   -1.5708   -2.0446 O.2       1 <0>        -0.6136
     24 C18         5.0735   -2.5490   -2.9715 C.ar      1 <0>        -0.0740
     25 C19         6.4367   -2.8088   -2.8277 C.ar      1 <0>        -0.0601
     26 C20         7.0901   -3.5884   -3.7596 C.ar      1 <0>        -0.1281
     27 C21         6.3967   -4.1124   -4.8361 C.ar      1 <0>        -0.1084
     28 C22         5.0441   -3.8582   -4.9852 C.ar      1 <0>        -0.0502
     29 C23         4.3778   -3.0846   -4.0550 C.ar      1 <0>        -0.0733
     30 Cl1         4.1823   -4.5188   -6.3397 Cl        1 <0>        -0.0859
     31 H1          1.7696   -1.1396    2.4924 H         1 <0>         0.0555
     32 H2          0.3007   -0.2947    3.0369 H         1 <0>         0.0517
     33 H3          0.2316   -2.0255    2.6272 H         1 <0>         0.0494
     34 H4          0.7436   -1.4860    0.2617 H         1 <0>         0.0649
     35 H5         -0.7254   -0.6410    0.8062 H         1 <0>         0.0627
     36 H6         -0.7686    1.7409    1.0268 H         1 <0>         0.1096
     37 H7          0.2610    3.9021    0.4568 H         1 <0>         0.1073
     38 H8          2.5954    3.9924   -0.3180 H         1 <0>         0.1100
     39 H9          3.9072    1.9204   -0.5234 H         1 <0>         0.1241
     40 H10         3.6798    1.0825    2.1757 H         1 <0>         0.0244
     41 H11         4.3149   -0.5081    2.6602 H         1 <0>         0.0234
     42 H12         4.0817    3.7858    3.2334 H         1 <0>         0.0690
     43 H13         5.5429    4.4368    2.4528 H         1 <0>         0.0601
     44 H14         4.5750    3.1898    1.6303 H         1 <0>         0.0915
     45 H15         8.0743    4.3076    3.8721 H         1 <0>         0.0664
     46 H16         6.4836    4.6863    4.5754 H         1 <0>         0.0795
     47 H17         7.7169    3.8596    5.5572 H         1 <0>         0.0817
     48 H18         7.4700   -1.3325    3.2164 H         1 <0>         0.0771
     49 H19         7.1753   -1.2340    4.9690 H         1 <0>         0.0609
     50 H20         5.8156   -1.4997    3.8515 H         1 <0>         0.0716
     51 H21         2.6002   -1.3777    0.0067 H         1 <0>         0.3924
     52 H22         6.9796   -2.4000   -1.9883 H         1 <0>         0.1473
     53 H23         8.1453   -3.7899   -3.6488 H         1 <0>         0.1292
     54 H24         6.9128   -4.7218   -5.5632 H         1 <0>         0.1264
     55 H25         3.3214   -2.8909   -4.1690 H         1 <0>         0.1362
@<TRIPOS>BOND
     1    1    2 1
     2    1   31 1
     3    1   32 1
     4    1   33 1
     5    2    3 1
     6    2   34 1
     7    2   35 1
     8    3    8 ar
     9    3    4 ar
    10    4    5 ar
    11    4   36 1
    12    5    6 ar
    13    5   37 1
    14    6    7 ar
    15    6   38 1
    16    7    8 ar
    17    7   39 1
    18    8    9 1
    19    9   51 1
    20    9   10 1
    21   10   11 1
    22   10   21 2
    23   11   12 1
    24   12   13 1
    25   12   40 1
    26   12   41 1
    27   13   17 2
    28   13   14 1
    29   14   15 2
    30   14   20 1
    31   15   16 1
    32   16   17 1
    33   16   19 1
    34   17   18 1
    35   18   42 1
    36   18   43 1
    37   18   44 1
    38   19   45 1
    39   19   46 1
    40   19   47 1
    41   20   48 1
    42   20   49 1
    43   20   50 1
    44   21   22 1
    45   22   23 2
    46   22   24 1
    47   24   29 ar
    48   24   25 ar
    49   25   26 ar
    50   25   52 1
    51   26   27 ar
    52   26   53 1
    53   27   28 ar
    54   27   54 1
    55   28   29 ar
    56   28   30 1
    57   29   55 1
