@<TRIPOS>MOLECULE
ZINC39421788
   45    48     0     0     0
SMALL
USER_CHARGES

@<TRIPOS>ATOM
      1 C1         -0.0187    1.5258    0.0104 C.3       1 <0>        -0.1493
      2 C2          0.0021   -0.0041    0.0020 C.3       1 <0>        -0.1134
      3 C3          0.7421   -0.5109    1.2415 C.3       1 <0>        -0.0581
      4 C4          0.7625   -2.0177    1.2333 C.ar      1 <0>         0.1775
      5 C5          1.9609   -2.7007    1.3221 C.ar      1 <0>        -0.3334
      6 C6          1.9350   -4.0949    1.3109 C.ar      1 <0>         0.4442
      7 N1          0.7669   -4.7176    1.2158 N.ar      1 <0>        -0.6127
      8 C7         -0.3617   -4.0273    1.1325 C.ar      1 <0>         0.3224
      9 N2         -0.3681   -2.7021    1.1462 N.ar      1 <0>        -0.5806
     10 S1         -1.8913   -4.8929    1.0070 S.3       1 <0>         0.0108
     11 C8         -1.4093   -6.6415    1.0325 C.3       1 <0>        -0.0212
     12 H1         -0.8119   -6.8408    1.9222 H         1 <0>         0.1327
     13 C9         -0.5863   -6.9620   -0.2168 C.3       1 <0>        -0.1371
     14 C10        -2.6456   -7.5030    1.0543 C.2       1 <0>         0.4727
     15 N3         -2.5666   -8.7112    1.5650 N.2       1 <0>        -0.5941
     16 C11        -3.6228   -9.5274    1.6161 C.2       1 <0>         0.5442
     17 O1         -3.5257  -10.6465    2.0960 O.2       1 <0>        -0.4492
     18 C12        -4.9213   -9.0403    1.0745 C.2       1 <0>        -0.2965
     19 C13        -6.1266   -9.7280    1.0340 C.2       1 <0>         0.1616
     20 C14        -7.3019   -8.9956    0.4256 C.3       1 <0>        -0.0979
     21 S2         -6.5309   -7.3885   -0.0217 S.3       1 <0>         0.0145
     22 C15        -4.8824   -7.7209    0.5499 C.2       1 <0>         0.2783
     23 N4         -3.7711   -7.0142    0.5638 N.2       1 <0>        -0.5166
     24 C16        -6.2477  -11.0307    1.5296 C.2       1 <0>        -0.2299
     25 C17        -7.0079  -11.4980    2.6096 C.2       1 <0>        -0.0843
     26 C18        -6.9216  -12.8402    2.8545 C.2       1 <0>        -0.1823
     27 C19        -6.1285  -13.6108    2.0592 C.2       1 <0>        -0.2413
     28 S3         -5.4810  -12.5311    0.9469 S.3       1 <0>         0.2893
     29 O2          3.0867   -4.8041    1.3955 O.3       1 <0>        -0.7019
     30 H2          1.0039    1.9031    0.0027 H         1 <0>         0.0496
     31 H3         -0.5459    1.8868   -0.8726 H         1 <0>         0.0498
     32 H4         -0.5289    1.8773    0.9072 H         1 <0>         0.0516
     33 H5         -1.0205   -0.3814    0.0098 H         1 <0>         0.0734
     34 H6          0.5123   -0.3556   -0.8948 H         1 <0>         0.0562
     35 H7          1.7647   -0.1336    1.2338 H         1 <0>         0.0690
     36 H8          0.2319   -0.1594    2.1383 H         1 <0>         0.0722
     37 H9          2.8964   -2.1665    1.3981 H         1 <0>         0.1117
     38 H10        -1.1837   -6.7627   -1.1064 H         1 <0>         0.0597
     39 H11         0.3079   -6.3389   -0.2325 H         1 <0>         0.1047
     40 H12        -0.2967   -8.0127   -0.2014 H         1 <0>         0.0636
     41 H13        -7.6703   -9.5133   -0.4600 H         1 <0>         0.1606
     42 H14        -8.0987   -8.8578    1.1566 H         1 <0>         0.1596
     43 H15        -7.6211  -10.8415    3.2091 H         1 <0>         0.1448
     44 H16        -7.4752  -13.2840    3.6688 H         1 <0>         0.1365
     45 H17        -5.9585  -14.6753    2.1256 H         1 <0>         0.1886
@<TRIPOS>BOND
     1    1    2 1
     2    1   30 1
     3    1   31 1
     4    1   32 1
     5    2    3 1
     6    2   33 1
     7    2   34 1
     8    3   35 1
     9    3   36 1
    10    3    4 1
    11    4    5 ar
    12    4    9 ar
    13    5    6 ar
    14    5   37 1
    15    6    7 ar
    16    6   29 1
    17    7    8 ar
    18    8    9 ar
    19    8   10 1
    20   10   11 1
    21   11   12 1
    22   11   13 1
    23   11   14 1
    24   13   38 1
    25   13   39 1
    26   13   40 1
    27   14   23 1
    28   14   15 2
    29   15   16 1
    30   16   17 2
    31   16   18 1
    32   18   22 1
    33   18   19 2
    34   19   20 1
    35   19   24 1
    36   20   21 1
    37   20   41 1
    38   20   42 1
    39   21   22 1
    40   22   23 2
    41   24   28 1
    42   24   25 2
    43   25   26 1
    44   25   43 1
    45   26   27 2
    46   26   44 1
    47   27   28 1
    48   27   45 1
