@<TRIPOS>MOLECULE
ZINC02758028
   49    51     0     0     0
SMALL
USER_CHARGES
ethyl 4-methyl-2-(2-thienylcarbonylamino)-5-[[2-(trifluoromethyl)phenyl]carbamoyl]thiophene-3-carboxylate
@<TRIPOS>ATOM
      1 C1          3.7064   -1.2053    3.3585 C.3       1 <0>        -0.1537
      2 C2          3.3504    0.2199    2.9308 C.3       1 <0>         0.0574
      3 O1          1.9065    0.3616    2.8732 O.3       1 <0>        -0.3478
      4 C3          1.4236    1.5669    2.5095 C.2       1 <0>         0.5319
      5 O2          2.1891    2.4748    2.2476 O.2       1 <0>        -0.4863
      6 C4         -0.0251    1.7830    2.4297 C.2       1 <0>        -0.2225
      7 C5         -0.7214    1.5503    1.2530 C.2       1 <0>         0.0396
      8 C6         -2.0704    1.7797    1.2567 C.2       1 <0>        -0.3080
      9 S1         -2.3726    2.3181    2.9291 S.3       1 <0>         0.3007
     10 C7         -0.7524    2.2307    3.5384 C.2       1 <0>         0.1140
     11 N1         -0.2927    2.5293    4.8044 N.am      1 <0>        -0.6109
     12 C8         -1.1536    2.9513    5.7517 C.2       1 <0>         0.6076
     13 O3         -2.3363    3.0688    5.4903 O.2       1 <0>        -0.4776
     14 C9         -0.6655    3.2683    7.0961 C.2       1 <0>        -0.2626
     15 C10        -1.3753    3.7122    8.2016 C.2       1 <0>        -0.0433
     16 C11        -0.6629    3.9349    9.3533 C.2       1 <0>        -0.1824
     17 C12         0.6782    3.7146    9.3572 C.2       1 <0>        -0.1602
     18 S2          0.9958    3.1767    7.7400 S.3       1 <0>         0.1506
     19 C13        -3.0276    1.6205    0.1607 C.2       1 <0>         0.6219
     20 O4         -2.6461    1.2364   -0.9297 O.2       1 <0>        -0.4972
     21 N2         -4.3313    1.8992    0.3587 N.am      1 <0>        -0.6762
     22 C14        -5.2296    1.8383   -0.7112 C.ar      1 <0>         0.1999
     23 C15        -5.0600    0.8872   -1.7094 C.ar      1 <0>        -0.1224
     24 C16        -5.9511    0.8273   -2.7625 C.ar      1 <0>        -0.0663
     25 C17        -7.0064    1.7188   -2.8290 C.ar      1 <0>        -0.1337
     26 C18        -7.1753    2.6698   -1.8397 C.ar      1 <0>        -0.0535
     27 C19        -6.2900    2.7323   -0.7813 C.ar      1 <0>        -0.2134
     28 C20        -6.4743    3.7698    0.2961 C.3       1 <0>         0.5075
     29 F1         -7.6015    4.5467    0.0074 F         1 <0>        -0.1716
     30 F2         -6.6494    3.1346    1.5302 F         1 <0>        -0.1788
     31 F3         -5.3433    4.5914    0.3507 F         1 <0>        -0.1725
     32 C21        -0.0159    1.0676    0.0119 C.3       1 <0>        -0.1192
     33 H1          3.3003   -1.9135    2.6363 H         1 <0>         0.0691
     34 H2          4.7903   -1.3116    3.4018 H         1 <0>         0.0831
     35 H3          3.2821   -1.4060    4.3423 H         1 <0>         0.0673
     36 H4          3.7747    0.4207    1.9470 H         1 <0>         0.0744
     37 H5          3.7564    0.9282    3.6530 H         1 <0>         0.0722
     38 H6          0.6500    2.4356    5.0128 H         1 <0>         0.4230
     39 H7         -2.4420    3.8751    8.1582 H         1 <0>         0.1544
     40 H8         -1.1623    4.2808   10.2463 H         1 <0>         0.1487
     41 H9          1.3761    3.8397   10.1718 H         1 <0>         0.1973
     42 H10        -4.6464    2.1419    1.2434 H         1 <0>         0.4114
     43 H11        -4.2340    0.1931   -1.6599 H         1 <0>         0.1539
     44 H12        -5.8217    0.0858   -3.5370 H         1 <0>         0.1385
     45 H13        -7.6998    1.6723   -3.6557 H         1 <0>         0.1380
     46 H14        -8.0002    3.3648   -1.8947 H         1 <0>         0.1435
     47 H15        -0.0061   -0.0223    0.0002 H         1 <0>         0.0868
     48 H16         1.0085    1.4402    0.0082 H         1 <0>         0.0654
     49 H17        -0.5396    1.4359   -0.8702 H         1 <0>         0.1018
@<TRIPOS>BOND
     1    1    2 1
     2    1   33 1
     3    1   34 1
     4    1   35 1
     5    2    3 1
     6    2   36 1
     7    2   37 1
     8    3    4 1
     9    4    5 2
    10    4    6 1
    11    6   10 2
    12    6    7 1
    13    7    8 2
    14    7   32 1
    15    8    9 1
    16    8   19 1
    17    9   10 1
    18   10   11 1
    19   11   12 am
    20   11   38 1
    21   12   13 2
    22   12   14 1
    23   14   18 1
    24   14   15 2
    25   15   16 1
    26   15   39 1
    27   16   17 2
    28   16   40 1
    29   17   18 1
    30   17   41 1
    31   19   20 2
    32   19   21 am
    33   21   22 1
    34   21   42 1
    35   22   27 ar
    36   22   23 ar
    37   23   24 ar
    38   23   43 1
    39   24   25 ar
    40   24   44 1
    41   25   26 ar
    42   25   45 1
    43   26   27 ar
    44   26   46 1
    45   27   28 1
    46   28   29 1
    47   28   30 1
    48   28   31 1
    49   32   47 1
    50   32   48 1
    51   32   49 1
