@<TRIPOS>MOLECULE
ZINC36051054
   61    64     0     0     0
SMALL
USER_CHARGES

@<TRIPOS>ATOM
      1 C1          0.8889    1.1801    0.1905 C.3       1 <0>        -0.1480
      2 C2          1.0319   -0.3420    0.2497 C.3       1 <0>         0.0667
      3 O1          0.9788   -0.8772   -1.0742 O.3       1 <0>        -0.3527
      4 C3          0.9854   -2.2235   -1.1925 C.2       1 <0>         0.5343
      5 O2          0.9456   -2.9230   -0.1952 O.2       1 <0>        -0.5503
      6 C4          1.0380   -2.8146   -2.4606 C.2       1 <0>        -0.3810
      7 C5          1.2416   -4.1734   -2.6069 C.2       1 <0>         0.3110
      8 N1          1.2891   -4.7183   -3.8116 N.2       1 <0>        -0.5901
      9 C6          1.1539   -4.0558   -4.9419 C.2       1 <0>         0.3400
     10 N2          0.9453   -2.7070   -5.0152 N.pl3     1 <0>        -0.5098
     11 C7          0.8676   -1.9880   -3.7156 C.3       1 <0>         0.2723
     12 H1         -0.1007   -1.4904   -3.6608 H         1 <0>         0.0726
     13 C8          1.9321   -0.9213   -3.7167 C.ar      1 <0>        -0.0670
     14 C9          1.5737    0.4124   -3.6781 C.ar      1 <0>        -0.0686
     15 C10         2.5533    1.3939   -3.6786 C.ar      1 <0>         0.0861
     16 C11         3.8931    1.0367   -3.7178 C.ar      1 <0>        -0.1669
     17 C12         4.2514   -0.2966   -3.7564 C.ar      1 <0>        -0.1782
     18 C13         3.2717   -1.2786   -3.7506 C.ar      1 <0>         0.1189
     19 O3          3.6246   -2.5914   -3.7829 O.3       1 <0>        -0.3005
     20 C14         5.0205   -2.8898   -3.7152 C.3       1 <0>         0.0309
     21 O4          2.2005    2.7066   -3.6411 O.3       1 <0>        -0.3171
     22 C15         3.2614    3.6639   -3.6439 C.3       1 <0>         0.0305
     23 C16         0.8233   -2.1591   -6.2768 C.2       1 <0>         0.2326
     24 C17         0.9192   -2.9943   -7.3349 C.2       1 <0>        -0.2945
     25 S1          1.1844   -4.5668   -6.5404 S.3       1 <0>         0.1378
     26 C18         0.5968   -0.7188   -6.4622 C.2       1 <0>        -0.4578
     27 C19         0.2968   -0.2359   -7.6835 C.2       1 <0>         0.4847
     28 O5          0.0469   -1.0889   -8.7069 O.3       1 <0>        -0.6840
     29 N3          0.2437    1.1322   -7.8934 N.pl3     1 <0>        -0.6831
     30 C20        -0.1923    1.6344   -9.1236 C.ar      1 <0>         0.1851
     31 C21        -0.0442    0.8746  -10.2770 C.ar      1 <0>        -0.1148
     32 C22        -0.4759    1.3725  -11.4907 C.ar      1 <0>        -0.1346
     33 C23        -1.0561    2.6281  -11.5584 C.ar      1 <0>         0.0412
     34 C24        -1.2047    3.3873  -10.4099 C.ar      1 <0>        -0.1333
     35 C25        -0.7793    2.8914   -9.1931 C.ar      1 <0>        -0.1575
     36 F1         -1.4773    3.1132  -12.7468 F         1 <0>        -0.1544
     37 C26         1.4113   -5.0404   -1.3861 C.3       1 <0>        -0.1022
     38 H2          1.7493    1.6061   -0.3256 H         1 <0>         0.0617
     39 H3         -0.0227    1.4388   -0.3482 H         1 <0>         0.0649
     40 H4          0.8383    1.5799    1.2033 H         1 <0>         0.0698
     41 H5          1.9868   -0.5997    0.7078 H         1 <0>         0.0547
     42 H6          0.2193   -0.7605    0.8436 H         1 <0>         0.0598
     43 H7          0.5305    0.6905   -3.6479 H         1 <0>         0.1320
     44 H8          4.6560    1.8011   -3.7185 H         1 <0>         0.1235
     45 H9          5.2946   -0.5747   -3.7877 H         1 <0>         0.1242
     46 H10         5.5422   -2.3715   -4.5197 H         1 <0>         0.0497
     47 H11         5.4161   -2.5608   -2.7543 H         1 <0>         0.0484
     48 H12         5.1677   -3.9647   -3.8199 H         1 <0>         0.0948
     49 H13         3.8956    3.5060   -2.7716 H         1 <0>         0.0494
     50 H14         3.8548    3.5459   -4.5507 H         1 <0>         0.0514
     51 H15         2.8432    4.6700   -3.6118 H         1 <0>         0.0951
     52 H16         0.8518   -2.7675   -8.3886 H         1 <0>         0.2287
     53 H17         0.6709   -0.0475   -5.6194 H         1 <0>         0.1000
     54 H18         0.5089    1.7419   -7.1871 H         1 <0>         0.3990
     55 H19         0.4085   -0.1045  -10.2247 H         1 <0>         0.1779
     56 H20        -0.3607    0.7822  -12.3878 H         1 <0>         0.1271
     57 H21        -1.6574    4.3663  -10.4650 H         1 <0>         0.1256
     58 H22        -0.8995    3.4821   -8.2970 H         1 <0>         0.1239
     59 H23         0.4312   -5.3011   -0.9865 H         1 <0>         0.0814
     60 H24         1.9465   -5.9502   -1.6581 H         1 <0>         0.0630
     61 H25         1.9788   -4.4971   -0.6306 H         1 <0>         0.0955
@<TRIPOS>BOND
     1    1    2 1
     2    1   38 1
     3    1   39 1
     4    1   40 1
     5    2    3 1
     6    2   41 1
     7    2   42 1
     8    3    4 1
     9    4    5 2
    10    4    6 1
    11    6   11 1
    12    6    7 2
    13    7    8 1
    14    7   37 1
    15    8    9 2
    16    9   25 1
    17    9   10 1
    18   10   11 1
    19   10   23 1
    20   11   12 1
    21   11   13 1
    22   13   18 ar
    23   13   14 ar
    24   14   15 ar
    25   14   43 1
    26   15   16 ar
    27   15   21 1
    28   16   17 ar
    29   16   44 1
    30   17   18 ar
    31   17   45 1
    32   18   19 1
    33   19   20 1
    34   20   46 1
    35   20   47 1
    36   20   48 1
    37   21   22 1
    38   22   49 1
    39   22   50 1
    40   22   51 1
    41   23   24 2
    42   23   26 1
    43   24   25 1
    44   24   52 1
    45   26   27 2
    46   26   53 1
    47   27   28 1
    48   27   29 1
    49   29   30 1
    50   29   54 1
    51   30   35 ar
    52   30   31 ar
    53   31   32 ar
    54   31   55 1
    55   32   33 ar
    56   32   56 1
    57   33   34 ar
    58   33   36 1
    59   34   35 ar
    60   34   57 1
    61   35   58 1
    62   37   59 1
    63   37   60 1
    64   37   61 1
