@<TRIPOS>MOLECULE
ZINC13137218
   51    54     0     0     0
SMALL
USER_CHARGES
[2-[(4-carbamoylphenyl)amino]-2-oxo-ethyl] 2-(4-bromophenyl)quinoline-4-carboxylate
@<TRIPOS>ATOM
      1 C1        -10.4144   10.9657    1.2020 C.ar      1 <0>        -0.1007
      2 C2        -10.1951   12.3383    1.2973 C.ar      1 <0>        -0.0996
      3 C3         -8.9445   12.8605    1.1735 C.ar      1 <0>        -0.0855
      4 C4         -7.8505   12.0048    0.9453 C.ar      1 <0>         0.1275
      5 C5         -8.0800   10.6089    0.8498 C.ar      1 <0>        -0.0577
      6 C6         -9.3790   10.1063    0.9820 C.ar      1 <0>        -0.1101
      7 C7         -6.9386    9.7248    0.6124 C.ar      1 <0>        -0.0708
      8 C8         -5.6875   10.3160    0.5004 C.ar      1 <0>        -0.0852
      9 C9         -5.5731   11.7105    0.6047 C.ar      1 <0>         0.1897
     10 N1         -6.6138   12.4875    0.8189 N.ar      1 <0>        -0.4371
     11 C10        -4.2321   12.3299    0.4763 C.ar      1 <0>        -0.0428
     12 C11        -3.1110   11.5313    0.2549 C.ar      1 <0>        -0.0909
     13 C12        -1.8661   12.1133    0.1309 C.ar      1 <0>        -0.0916
     14 C13        -1.7278   13.4866    0.2366 C.ar      1 <0>        -0.0769
     15 C14        -2.8370   14.2837    0.4621 C.ar      1 <0>        -0.0956
     16 C15        -4.0871   13.7124    0.5824 C.ar      1 <0>        -0.0688
     17 Br1        -0.0175   14.2766    0.0729 Br        1 <0>        -0.0442
     18 C16        -7.1097    8.2609    0.5026 C.2       1 <0>         0.5221
     19 O1         -8.2240    7.7777    0.5078 O.2       1 <0>        -0.4870
     20 O2         -6.0298    7.4626    0.3967 O.3       1 <0>        -0.3246
     21 C17        -6.2732    6.0349    0.2925 C.3       1 <0>         0.0513
     22 C18        -4.9577    5.3078    0.1831 C.2       1 <0>         0.5165
     23 O3         -3.9176    5.9313    0.1920 O.2       1 <0>        -0.4872
     24 N2         -4.9372    3.9645    0.0753 N.am      1 <0>        -0.6687
     25 C19        -3.7201    3.2841    0.0682 C.ar      1 <0>         0.1707
     26 C20        -2.6077    3.8580   -0.5393 C.ar      1 <0>        -0.1282
     27 C21        -1.4044    3.1891   -0.5477 C.ar      1 <0>        -0.0368
     28 C22        -1.3010    1.9324    0.0548 C.ar      1 <0>        -0.1534
     29 C23        -2.4216    1.3566    0.6594 C.ar      1 <0>        -0.0653
     30 C24        -3.6206    2.0331    0.6689 C.ar      1 <0>        -0.1499
     31 C25        -0.0127    1.2123    0.0472 C.2       1 <0>         0.5638
     32 O4          0.9602    1.7123   -0.4837 O.2       1 <0>        -0.5379
     33 N3          0.0867    0.0028    0.6335 N.am      1 <0>        -0.8515
     34 H1        -11.4171   10.5775    1.3040 H         1 <0>         0.1337
     35 H2        -11.0314   12.9988    1.4726 H         1 <0>         0.1358
     36 H3         -8.7921   13.9270    1.2500 H         1 <0>         0.1424
     37 H4         -9.5605    9.0442    0.9099 H         1 <0>         0.1613
     38 H5         -4.8111    9.7086    0.3294 H         1 <0>         0.1610
     39 H6         -3.2173   10.4594    0.1764 H         1 <0>         0.1400
     40 H7         -0.9976   11.4959   -0.0447 H         1 <0>         0.1402
     41 H8         -2.7235   15.3545    0.5445 H         1 <0>         0.1386
     42 H9         -4.9517   14.3351    0.7587 H         1 <0>         0.1460
     43 H10        -6.8749    5.8326   -0.5935 H         1 <0>         0.1124
     44 H11        -6.8055    5.6914    1.1795 H         1 <0>         0.1125
     45 H12        -5.7691    3.4710    0.0027 H         1 <0>         0.4172
     46 H13        -2.6881    4.8293   -1.0044 H         1 <0>         0.1478
     47 H14        -0.5412    3.6353   -1.0192 H         1 <0>         0.1426
     48 H15        -2.3461    0.3837    1.1223 H         1 <0>         0.1325
     49 H16        -4.4860    1.5905    1.1396 H         1 <0>         0.1354
     50 H17         0.9344   -0.4687    0.6320 H         1 <0>         0.4066
     51 H18        -0.6894   -0.3961    1.0570 H         1 <0>         0.4004
@<TRIPOS>BOND
     1    1    6 ar
     2    1    2 ar
     3    1   34 1
     4    2    3 ar
     5    2   35 1
     6    3    4 ar
     7    3   36 1
     8    4   10 ar
     9    4    5 ar
    10    5    6 ar
    11    5    7 ar
    12    6   37 1
    13    7    8 ar
    14    7   18 1
    15    8    9 ar
    16    8   38 1
    17    9   10 ar
    18    9   11 1
    19   11   16 ar
    20   11   12 ar
    21   12   13 ar
    22   12   39 1
    23   13   14 ar
    24   13   40 1
    25   14   15 ar
    26   14   17 1
    27   15   16 ar
    28   15   41 1
    29   16   42 1
    30   18   19 2
    31   18   20 1
    32   20   21 1
    33   21   22 1
    34   21   43 1
    35   21   44 1
    36   22   23 2
    37   22   24 am
    38   24   25 1
    39   24   45 1
    40   25   30 ar
    41   25   26 ar
    42   26   27 ar
    43   26   46 1
    44   27   28 ar
    45   27   47 1
    46   28   29 ar
    47   28   31 1
    48   29   30 ar
    49   29   48 1
    50   30   49 1
    51   31   32 2
    52   31   33 am
    53   33   50 1
    54   33   51 1
