@<TRIPOS>MOLECULE
ZINC13149756
   62    64     0     0     0
SMALL
USER_CHARGES
[2-[(2-chloro-4,6-dimethyl-phenyl)amino]-2-oxo-ethyl] 2-[(5S,9S)-7,7,9-trimethyl-1,3-dioxo-2,4-diazaspiro[4.5]decan-2-yl]acetate
@<TRIPOS>ATOM
      1 C1         -9.2872    7.9878    4.8210 C.3       1 <0>        -0.1180
      2 C2         -8.0976    7.0684    4.7174 C.ar      1 <0>        -0.0585
      3 C3         -7.6419    6.4007    5.8395 C.ar      1 <0>        -0.1128
      4 C4         -6.5555    5.5529    5.7474 C.ar      1 <0>        -0.0554
      5 C5         -5.9134    5.3792    4.5286 C.ar      1 <0>         0.1313
      6 C6         -6.3730    6.0516    3.4027 C.ar      1 <0>        -0.0172
      7 C7         -7.4640    6.8946    3.5009 C.ar      1 <0>        -0.1141
      8 Cl1        -5.5777    5.8336    1.8751 Cl        1 <0>        -0.0575
      9 N1         -4.8091    4.5244    4.4330 N.am      1 <0>        -0.6789
     10 C8         -4.9818    3.2388    4.0671 C.2       1 <0>         0.5215
     11 O1         -6.1008    2.7981    3.9097 O.2       1 <0>        -0.4921
     12 C9         -3.7845    2.3488    3.8536 C.3       1 <0>         0.0520
     13 O2         -4.2305    1.0219    3.4679 O.3       1 <0>        -0.3251
     14 C10        -3.2800    0.1022    3.2386 C.2       1 <0>         0.4538
     15 O3         -2.1140    0.3962    3.3563 O.2       1 <0>        -0.4936
     16 C11        -3.6672   -1.2970    2.8343 C.3       1 <0>         0.1302
     17 N2         -2.4588   -2.1024    2.6449 N.am      1 <0>        -0.5710
     18 C12        -1.8651   -2.8216    3.6226 C.2       1 <0>         0.5391
     19 O4         -2.3196   -3.0276    4.7279 O.2       1 <0>        -0.4457
     20 C13        -0.5718   -3.3242    3.0321 C.3       1 <0>         0.1397
     21 C14        -0.4574   -4.8351    3.1754 C.3       1 <0>        -0.1073
     22 C15        -0.1477   -5.2062    4.6261 C.3       1 <0>        -0.0958
     23 H1         -0.9422   -4.8502    5.2780 H         1 <0>         0.0900
     24 C16         1.1877   -4.5794    5.0218 C.3       1 <0>        -0.1038
     25 C17         1.1144   -3.0567    4.9411 C.3       1 <0>        -0.0553
     26 C18         0.6380   -2.5872    3.5749 C.3       1 <0>        -0.1041
     27 C19         2.5402   -2.5069    5.1624 C.3       1 <0>        -0.1457
     28 C20         0.2286   -2.5043    6.0572 C.3       1 <0>        -0.1627
     29 C21        -0.0469   -6.7305    4.7470 C.3       1 <0>        -0.1467
     30 N3         -0.7096   -2.9939    1.5946 N.am      1 <0>        -0.7224
     31 C22        -1.8000   -2.2155    1.4866 C.2       1 <0>         0.7091
     32 O5         -2.1481   -1.6749    0.4547 O.2       1 <0>        -0.5362
     33 C23        -6.0639    4.8213    6.9697 C.3       1 <0>        -0.1136
     34 H2        -10.2002    7.4232    4.6321 H         1 <0>         0.0778
     35 H3         -9.3270    8.4191    5.8212 H         1 <0>         0.0726
     36 H4         -9.1946    8.7860    4.0845 H         1 <0>         0.0718
     37 H5         -8.1390    6.5391    6.7883 H         1 <0>         0.1350
     38 H6         -7.8221    7.4177    2.6265 H         1 <0>         0.1386
     39 H7         -3.9195    4.8572    4.6301 H         1 <0>         0.4127
     40 H8         -3.2100    2.2846    4.7777 H         1 <0>         0.1068
     41 H9         -3.1583    2.7652    3.0646 H         1 <0>         0.1082
     42 H10        -4.2310   -1.2629    1.9021 H         1 <0>         0.1455
     43 H11        -4.2827   -1.7435    3.6152 H         1 <0>         0.1452
     44 H12        -1.3983   -5.3006    2.8758 H         1 <0>         0.0755
     45 H13         0.3420   -5.2017    2.5293 H         1 <0>         0.0875
     46 H14         1.9692   -4.9403    4.3490 H         1 <0>         0.0658
     47 H15         1.4386   -4.8767    6.0424 H         1 <0>         0.0703
     48 H16         1.4639   -2.6895    2.8564 H         1 <0>         0.0865
     49 H17         0.3993   -1.5151    3.6324 H         1 <0>         0.0759
     50 H18         2.5197   -1.4178    5.1241 H         1 <0>         0.0553
     51 H19         2.9067   -2.8294    6.1370 H         1 <0>         0.0599
     52 H20         3.2007   -2.8855    4.3824 H         1 <0>         0.0554
     53 H21        -0.7960   -2.8461    5.9107 H         1 <0>         0.0808
     54 H22         0.5954   -2.8580    7.0207 H         1 <0>         0.0577
     55 H23         0.2547   -1.4148    6.0361 H         1 <0>         0.0511
     56 H24         0.1913   -6.9984    5.7763 H         1 <0>         0.0598
     57 H25        -0.9986   -7.1810    4.4651 H         1 <0>         0.0560
     58 H26         0.7383   -7.0963    4.0853 H         1 <0>         0.0556
     59 H27        -0.1215   -3.2894    0.8853 H         1 <0>         0.4416
     60 H28        -5.3192    5.4301    7.4825 H         1 <0>         0.0771
     61 H29        -6.9017    4.6306    7.6405 H         1 <0>         0.0744
     62 H30        -5.6153    3.8741    6.6704 H         1 <0>         0.0667
@<TRIPOS>BOND
     1    1    2 1
     2    1   34 1
     3    1   35 1
     4    1   36 1
     5    2    7 ar
     6    2    3 ar
     7    3    4 ar
     8    3   37 1
     9    4    5 ar
    10    4   33 1
    11    5    6 ar
    12    5    9 1
    13    6    7 ar
    14    6    8 1
    15    7   38 1
    16    9   10 am
    17    9   39 1
    18   10   11 2
    19   10   12 1
    20   12   13 1
    21   12   40 1
    22   12   41 1
    23   13   14 1
    24   14   15 2
    25   14   16 1
    26   16   17 1
    27   16   42 1
    28   16   43 1
    29   17   31 am
    30   17   18 am
    31   18   19 2
    32   18   20 1
    33   20   26 1
    34   20   21 1
    35   20   30 1
    36   21   22 1
    37   21   44 1
    38   21   45 1
    39   22   23 1
    40   22   24 1
    41   22   29 1
    42   24   25 1
    43   24   46 1
    44   24   47 1
    45   25   26 1
    46   25   27 1
    47   25   28 1
    48   26   48 1
    49   26   49 1
    50   27   50 1
    51   27   51 1
    52   27   52 1
    53   28   53 1
    54   28   54 1
    55   28   55 1
    56   29   56 1
    57   29   57 1
    58   29   58 1
    59   30   31 am
    60   30   59 1
    61   31   32 2
    62   33   60 1
    63   33   61 1
    64   33   62 1
