@<TRIPOS>MOLECULE
ZINC58960125
   54    57     0     0     0
SMALL
USER_CHARGES

@<TRIPOS>ATOM
      1 C1         -0.0184    1.5028    0.0103 C.3       1 <0>        -0.1257
      2 C2          0.0021   -0.0041    0.0020 C.ar      1 <0>        -0.0449
      3 C3          0.0057   -0.6888   -1.1991 C.ar      1 <0>        -0.1269
      4 C4          0.0245   -2.0707   -1.2067 C.ar      1 <0>        -0.1038
      5 C5          0.0400   -2.7685   -0.0132 C.ar      1 <0>        -0.1314
      6 C6          0.0373   -2.0840    1.1875 C.ar      1 <0>        -0.0954
      7 C7          0.0229   -0.7015    1.1951 C.ar      1 <0>        -0.1178
      8 C8          0.0252    0.0449    2.5043 C.3       1 <0>         0.1783
      9 N1         -1.3518    0.3727    2.8820 N.pl3     1 <0>        -0.3588
     10 C9         -1.9494    0.0591    4.0508 C.2       1 <0>         0.0651
     11 C10        -3.2141    0.5364    4.0113 C.2       1 <0>        -0.2653
     12 C11        -3.3980    1.1667    2.7702 C.2       1 <0>         0.2924
     13 N2         -2.2765    1.0717    2.0956 N.2       1 <0>        -0.3072
     14 N3         -4.5727    1.7924    2.3306 N.am      1 <0>        -0.6275
     15 C12        -5.6584    1.8241    3.1285 C.2       1 <0>         0.5461
     16 O1         -5.6191    1.3110    4.2268 O.2       1 <0>        -0.4944
     17 C13        -6.9214    2.4968    2.6559 C.3       1 <0>        -0.1588
     18 S1         -8.1916    2.3723    3.9449 S.3       1 <0>         0.1216
     19 C14        -9.5866    3.1941    3.2496 C.ar      1 <0>         0.2984
     20 N4        -10.7021    3.2835    3.9580 N.ar      1 <0>        -0.4743
     21 C15       -11.7727    3.8982    3.4610 C.ar      1 <0>         0.2554
     22 C16       -11.7030    4.4493    2.1783 C.ar      1 <0>        -0.1860
     23 C17       -10.5179    4.3326    1.4742 C.ar      1 <0>         0.1141
     24 N5         -9.4910    3.7119    2.0330 N.ar      1 <0>        -0.5013
     25 C18       -10.3958    4.9106    0.0878 C.3       1 <0>         0.5265
     26 F1         -9.9410    6.2309    0.1714 F         1 <0>        -0.1624
     27 F2         -9.4868    4.1504   -0.6559 F         1 <0>        -0.1583
     28 F3        -11.6462    4.8869   -0.5391 F         1 <0>        -0.1631
     29 C19       -13.0207    3.9967    4.2558 C.ar      1 <0>        -0.0675
     30 C20       -14.1392    4.6374    3.7249 C.ar      1 <0>        -0.0723
     31 C21       -15.2981    4.7259    4.4682 C.ar      1 <0>        -0.1142
     32 C22       -15.3514    4.1800    5.7396 C.ar      1 <0>        -0.0105
     33 C23       -14.2432    3.5426    6.2714 C.ar      1 <0>        -0.1160
     34 C24       -13.0813    3.4437    5.5340 C.ar      1 <0>        -0.0503
     35 Cl1       -16.8123    4.2958    6.6702 Cl        1 <0>        -0.0568
     36 H1          1.0042    1.8801    0.0026 H         1 <0>         0.0674
     37 H2         -0.5455    1.8639   -0.8728 H         1 <0>         0.0663
     38 H3         -0.5286    1.8543    0.9071 H         1 <0>         0.0851
     39 H4         -0.0064   -0.1437   -2.1314 H         1 <0>         0.1234
     40 H5          0.0266   -2.6056   -2.1449 H         1 <0>         0.1232
     41 H6          0.0540   -3.8484   -0.0191 H         1 <0>         0.1235
     42 H7          0.0491   -2.6290    2.1199 H         1 <0>         0.1217
     43 H8          0.4754   -0.5783    3.2770 H         1 <0>         0.1071
     44 H9          0.6013    0.9641    2.3974 H         1 <0>         0.0951
     45 H10        -1.4977   -0.4777    4.8719 H         1 <0>         0.1782
     46 H11        -3.9518    0.4481    4.7951 H         1 <0>         0.1722
     47 H12        -4.6041    2.2027    1.4522 H         1 <0>         0.4189
     48 H13        -6.7174    3.5470    2.4471 H         1 <0>         0.1328
     49 H14        -7.2757    2.0081    1.7483 H         1 <0>         0.1333
     50 H15       -12.5547    4.9542    1.7468 H         1 <0>         0.1664
     51 H16       -14.0984    5.0641    2.7336 H         1 <0>         0.1405
     52 H17       -16.1652    5.2221    4.0579 H         1 <0>         0.1440
     53 H18       -14.2897    3.1188    7.2637 H         1 <0>         0.1437
     54 H19       -12.2188    2.9427    5.9481 H         1 <0>         0.1499
@<TRIPOS>BOND
     1    1    2 1
     2    1   36 1
     3    1   37 1
     4    1   38 1
     5    2    7 ar
     6    2    3 ar
     7    3    4 ar
     8    3   39 1
     9    4    5 ar
    10    4   40 1
    11    5    6 ar
    12    5   41 1
    13    6    7 ar
    14    6   42 1
    15    7    8 1
    16    8    9 1
    17    8   43 1
    18    8   44 1
    19    9   13 1
    20    9   10 1
    21   10   11 2
    22   10   45 1
    23   11   12 1
    24   11   46 1
    25   12   13 2
    26   12   14 1
    27   14   15 am
    28   14   47 1
    29   15   16 2
    30   15   17 1
    31   17   18 1
    32   17   48 1
    33   17   49 1
    34   18   19 1
    35   19   24 ar
    36   19   20 ar
    37   20   21 ar
    38   21   22 ar
    39   21   29 1
    40   22   23 ar
    41   22   50 1
    42   23   24 ar
    43   23   25 1
    44   25   26 1
    45   25   27 1
    46   25   28 1
    47   29   34 ar
    48   29   30 ar
    49   30   31 ar
    50   30   51 1
    51   31   32 ar
    52   31   52 1
    53   32   33 ar
    54   32   35 1
    55   33   34 ar
    56   33   53 1
    57   34   54 1
