@<TRIPOS>MOLECULE
ZINC37392495
   33    34     0     0     0
SMALL
USER_CHARGES

@<TRIPOS>ATOM
      1 C1         -0.0187    1.5258    0.0104 C.3       1 <0>        -0.1405
      2 C2          0.0021   -0.0041    0.0020 C.3       1 <0>        -0.0009
      3 C3          0.7182   -0.4975   -1.2568 C.3       1 <0>        -0.1399
      4 C4          0.7309   -0.5033    1.2229 C.2       1 <0>         0.1859
      5 N1          1.9678   -0.2463    1.5431 N.2       1 <0>        -0.2751
      6 N2          2.2695   -0.8304    2.6473 N.2       1 <0>        -0.3003
      7 C5          1.2330   -1.4988    3.0976 C.2       1 <0>         0.1738
      8 N3          0.2146   -1.3064    2.2049 N.pl3     1 <0>        -0.4328
      9 C6         -1.0866   -1.8261    2.2781 C.ar      1 <0>         0.1405
     10 C7         -1.3758   -3.0591    1.7101 C.ar      1 <0>        -0.0757
     11 C8         -2.6573   -3.5690    1.7839 C.ar      1 <0>        -0.0755
     12 C9         -3.6533   -2.8518    2.4230 C.ar      1 <0>        -0.0669
     13 C10        -3.3687   -1.6227    2.9902 C.ar      1 <0>        -0.0753
     14 C11        -2.0864   -1.1103    2.9242 C.ar      1 <0>        -0.0126
     15 Cl1        -1.7277    0.4292    3.6418 Cl        1 <0>        -0.0298
     16 Br1        -5.4068   -3.5530    2.5206 Br        1 <0>        -0.0262
     17 S1          1.1644   -2.4558    4.5754 S.3       1 <0>         0.0458
     18 C12         2.8251   -2.2864    5.2854 C.3       1 <0>        -0.1618
     19 C13         2.9037   -3.0679    6.5715 C.2       1 <0>         0.5158
     20 O1          1.9297   -3.6822    6.9721 O.co2     1 <0>        -0.6746
     21 O2          3.9413   -3.0858    7.2115 O.co2     1 <0>        -0.6749
     22 H1          1.0039    1.9031    0.0027 H         1 <0>         0.0696
     23 H2         -0.5459    1.8868   -0.8726 H         1 <0>         0.0658
     24 H3         -0.5289    1.8773    0.9072 H         1 <0>         0.0556
     25 H4         -1.0205   -0.3814    0.0098 H         1 <0>         0.0803
     26 H5          1.7408   -0.1202   -1.2645 H         1 <0>         0.0698
     27 H6          0.7330   -1.5874   -1.2628 H         1 <0>         0.0545
     28 H7          0.1910   -0.1364   -2.1398 H         1 <0>         0.0661
     29 H8         -0.5993   -3.6193    1.2105 H         1 <0>         0.1503
     30 H9         -2.8823   -4.5283    1.3419 H         1 <0>         0.1520
     31 H10        -4.1477   -1.0648    3.4884 H         1 <0>         0.1545
     32 H11         3.5624   -2.6711    4.5808 H         1 <0>         0.0914
     33 H12         3.0288   -1.2346    5.4863 H         1 <0>         0.0913
@<TRIPOS>BOND
     1    1    2 1
     2    1   22 1
     3    1   23 1
     4    1   24 1
     5    2    3 1
     6    2    4 1
     7    2   25 1
     8    3   26 1
     9    3   27 1
    10    3   28 1
    11    4    8 1
    12    4    5 2
    13    5    6 1
    14    6    7 2
    15    7    8 1
    16    7   17 1
    17    8    9 1
    18    9   14 ar
    19    9   10 ar
    20   10   11 ar
    21   10   29 1
    22   11   12 ar
    23   11   30 1
    24   12   13 ar
    25   12   16 1
    26   13   14 ar
    27   13   31 1
    28   14   15 1
    29   17   18 1
    30   18   19 1
    31   18   32 1
    32   18   33 1
    33   19   20 2
    34   19   21 1
