@<TRIPOS>MOLECULE
ZINC08766788
   73    76     0     0     0
SMALL
USER_CHARGES
N-[1-[2-(3,4-dimethoxyphenyl)ethylcarbamoyl]-2-[1-(dimethylsulfamoyl)indol-3-yl]-vinyl]-2-fluoro-benzamide
@<TRIPOS>ATOM
      1 C1         -3.4023   -2.7132    2.1309 C.3       1 <0>         0.0890
      2 N1         -2.6213   -1.9769    1.1338 N.pl3     1 <0>        -1.0000
      3 C2         -1.1574   -2.0152    1.1758 C.3       1 <0>         0.0749
      4 S1         -3.3933   -1.1013   -0.0409 S.o2      1 <0>         2.7629
      5 O1         -4.6697   -1.6994   -0.2204 O.2       1 <0>        -0.9400
      6 O2         -2.4671   -0.9478   -1.1076 O.2       1 <0>        -0.9380
      7 N2         -3.6622    0.4126    0.5741 N.pl3     1 <0>        -0.8300
      8 C3         -4.8878    0.9340    0.8434 C.2       1 <0>         0.0763
      9 C4         -4.7502    2.1948    1.3492 C.2       1 <0>        -0.1141
     10 C5         -3.3028    2.4766    1.3816 C.ar      1 <0>        -0.0696
     11 C6         -2.6736    1.3229    0.8859 C.ar      1 <0>         0.0969
     12 C7         -1.2858    1.2861    0.8011 C.ar      1 <0>        -0.1289
     13 C8         -0.5437    2.3794    1.1924 C.ar      1 <0>        -0.0853
     14 C9         -1.1670    3.5200    1.6769 C.ar      1 <0>        -0.1246
     15 C10        -2.5406    3.5740    1.7730 C.ar      1 <0>        -0.0694
     16 C11        -5.8285    3.0959    1.7634 C.2       1 <0>         0.0114
     17 C12        -7.0746    2.6058    1.9867 C.2       1 <0>         0.0383
     18 C13        -8.1885    3.5229    2.2339 C.2       1 <0>         0.5671
     19 O3         -7.9973    4.7253    2.2391 O.2       1 <0>        -0.5334
     20 N3         -9.4256    3.0363    2.4556 N.am      1 <0>        -0.7162
     21 C14       -10.5403    3.9541    2.7030 C.3       1 <0>         0.1264
     22 C15       -11.8236    3.1504    2.9225 C.3       1 <0>        -0.0875
     23 C16       -12.9703    4.0945    3.1769 C.ar      1 <0>        -0.0794
     24 C17       -13.2717    4.4810    4.4697 C.ar      1 <0>        -0.1090
     25 C18       -14.3190    5.3514    4.7078 C.ar      1 <0>        -0.1703
     26 C19       -15.0765    5.8295    3.6505 C.ar      1 <0>         0.0990
     27 C20       -14.7767    5.4360    2.3499 C.ar      1 <0>         0.1025
     28 C21       -13.7220    4.5678    2.1177 C.ar      1 <0>        -0.1648
     29 O4        -15.5169    5.9029    1.3089 O.3       1 <0>        -0.3061
     30 C22       -15.1514    5.4568    0.0015 C.3       1 <0>         0.0251
     31 O5        -16.1104    6.6817    3.8835 O.3       1 <0>        -0.3067
     32 C23       -16.3601    7.0422    5.2436 C.3       1 <0>         0.0258
     33 N4         -7.2947    1.2207    1.9807 N.am      1 <0>        -0.6797
     34 C24        -8.1853    0.6837    1.1234 C.2       1 <0>         0.5454
     35 O6         -8.7401    1.3885    0.3023 O.2       1 <0>        -0.4884
     36 C25        -8.4874   -0.7606    1.1812 C.ar      1 <0>        -0.1835
     37 C26        -7.9362   -1.5531    2.1906 C.ar      1 <0>        -0.0584
     38 C27        -8.2264   -2.8998    2.2420 C.ar      1 <0>        -0.1349
     39 C28        -9.0536   -3.4712    1.2899 C.ar      1 <0>        -0.0546
     40 C29        -9.5997   -2.6965    0.2841 C.ar      1 <0>        -0.1618
     41 C30        -9.3221   -1.3429    0.2222 C.ar      1 <0>         0.1679
     42 F1         -9.8553   -0.5859   -0.7616 F         1 <0>        -0.1121
     43 H1         -3.5313   -3.7444    1.8022 H         1 <0>         0.0696
     44 H2         -2.8774   -2.6993    3.0861 H         1 <0>         0.0801
     45 H3         -4.3792   -2.2437    2.2462 H         1 <0>         0.0717
     46 H4         -0.7737   -1.0170    1.3865 H         1 <0>         0.0667
     47 H5         -0.8343   -2.7014    1.9587 H         1 <0>         0.0923
     48 H6         -0.7751   -2.3559    0.2136 H         1 <0>         0.0762
     49 H7         -5.8278    0.4251    0.6887 H         1 <0>         0.1899
     50 H8         -0.7904    0.4033    0.4246 H         1 <0>         0.1314
     51 H9          0.5335    2.3480    1.1210 H         1 <0>         0.1368
     52 H10        -0.5731    4.3696    1.9798 H         1 <0>         0.1340
     53 H11        -3.0236    4.4635    2.1498 H         1 <0>         0.1338
     54 H12        -5.6321    4.1502    1.8910 H         1 <0>         0.1597
     55 H13        -9.5779    2.0783    2.4514 H         1 <0>         0.3968
     56 H14       -10.3293    4.5512    3.5901 H         1 <0>         0.0733
     57 H15       -10.6665    4.6124    1.8434 H         1 <0>         0.0720
     58 H16       -12.0346    2.5533    2.0353 H         1 <0>         0.0797
     59 H17       -11.6974    2.4921    3.7820 H         1 <0>         0.0796
     60 H18       -12.6848    4.1056    5.2949 H         1 <0>         0.1277
     61 H19       -14.5496    5.6552    5.7182 H         1 <0>         0.1364
     62 H20       -13.4875    4.2606    1.1092 H         1 <0>         0.1362
     63 H21       -15.8202    5.9028   -0.7347 H         1 <0>         0.1017
     64 H22       -14.1253    5.7567   -0.2111 H         1 <0>         0.0560
     65 H23       -15.2300    4.3708   -0.0471 H         1 <0>         0.0552
     66 H24       -17.2089    7.7246    5.2886 H         1 <0>         0.1011
     67 H25       -16.5835    6.1458    5.8219 H         1 <0>         0.0549
     68 H26       -15.4783    7.5314    5.6575 H         1 <0>         0.0553
     69 H27        -6.8060    0.6493    2.5935 H         1 <0>         0.4099
     70 H28        -7.2868   -1.1110    2.9317 H         1 <0>         0.1336
     71 H29        -7.8033   -3.5121    3.0246 H         1 <0>         0.1391
     72 H30        -9.2729   -4.5278    1.3333 H         1 <0>         0.1412
     73 H31       -10.2440   -3.1489   -0.4552 H         1 <0>         0.1458
@<TRIPOS>BOND
     1    1    2 1
     2    1   43 1
     3    1   44 1
     4    1   45 1
     5    2    3 1
     6    2    4 1
     7    3   46 1
     8    3   47 1
     9    3   48 1
    10    4    5 2
    11    4    6 2
    12    4    7 1
    13    7   11 1
    14    7    8 1
    15    8    9 2
    16    8   49 1
    17    9   10 1
    18    9   16 1
    19   10   15 ar
    20   10   11 ar
    21   11   12 ar
    22   12   13 ar
    23   12   50 1
    24   13   14 ar
    25   13   51 1
    26   14   15 ar
    27   14   52 1
    28   15   53 1
    29   16   17 2
    30   16   54 1
    31   17   18 1
    32   17   33 1
    33   18   19 2
    34   18   20 am
    35   20   21 1
    36   20   55 1
    37   21   22 1
    38   21   56 1
    39   21   57 1
    40   22   23 1
    41   22   58 1
    42   22   59 1
    43   23   28 ar
    44   23   24 ar
    45   24   25 ar
    46   24   60 1
    47   25   26 ar
    48   25   61 1
    49   26   27 ar
    50   26   31 1
    51   27   28 ar
    52   27   29 1
    53   28   62 1
    54   29   30 1
    55   30   63 1
    56   30   64 1
    57   30   65 1
    58   31   32 1
    59   32   66 1
    60   32   67 1
    61   32   68 1
    62   33   34 am
    63   33   69 1
    64   34   35 2
    65   34   36 1
    66   36   41 ar
    67   36   37 ar
    68   37   38 ar
    69   37   70 1
    70   38   39 ar
    71   38   71 1
    72   39   40 ar
    73   39   72 1
    74   40   41 ar
    75   40   73 1
    76   41   42 1
