@<TRIPOS>MOLECULE
ZINC39684086
   74    78     0     0     0
SMALL
USER_CHARGES

@<TRIPOS>ATOM
      1 C1         -4.8937   -1.9120    2.4452 C.3       1 <0>        -0.1150
      2 C2         -5.6352   -0.8375    1.6925 C.ar      1 <0>        -0.0926
      3 C3         -5.5219    0.4804    2.0784 C.ar      1 <0>        -0.0991
      4 C4         -6.2000    1.4793    1.3938 C.ar      1 <0>        -0.1350
      5 C5         -6.9925    1.1723    0.3236 C.ar      1 <0>        -0.0806
      6 C6         -7.1213   -0.1563   -0.0848 C.ar      1 <0>        -0.0975
      7 C7         -7.8632   -0.8247   -1.1566 C.2       1 <0>        -0.1813
      8 C8         -7.5982   -2.1370   -1.0580 C.2       1 <0>         0.0629
      9 N1         -6.7473   -2.3638   -0.0108 N.pl3     1 <0>        -0.5914
     10 C9         -6.4318   -1.1720    0.6026 C.ar      1 <0>         0.0975
     11 C10        -8.7551   -0.1644   -2.1762 C.3       1 <0>        -0.0466
     12 C11        -7.9079    0.3327   -3.3492 C.3       1 <0>         0.1213
     13 N2         -8.7750    0.9746   -4.3404 N.am      1 <0>        -0.7324
     14 C12        -8.2441    1.4913   -5.4662 C.2       1 <0>         0.5114
     15 O1         -7.0485    1.4249   -5.6588 O.2       1 <0>        -0.5083
     16 C13        -9.1360    2.1516   -6.4858 C.3       1 <0>        -0.1145
     17 H1         -9.9648    2.6589   -5.9921 H         1 <0>         0.1182
     18 C14        -8.3264    3.1513   -7.3417 C.3       1 <0>         0.1197
     19 N3         -7.9371    2.3825   -8.5473 N.am      1 <0>        -0.6150
     20 C15        -9.1306    1.5612   -8.8621 C.3       1 <0>         0.0922
     21 C16        -9.6651    1.1117   -7.4878 C.3       1 <0>        -0.0742
     22 C17       -11.1908    1.1084   -7.4898 C.3       1 <0>        -0.1346
     23 C18       -11.6932    0.0266   -8.4500 C.3       1 <0>        -0.0102
     24 N4        -11.1815   -1.2824   -8.0263 N.4       1 <0>        -0.5047
     25 C19        -9.7165   -1.3004   -8.1166 C.3       1 <0>        -0.0095
     26 C20        -9.1305   -0.2747   -7.1422 C.3       1 <0>        -0.1478
     27 C21        -6.7633    2.4214   -9.2084 C.2       1 <0>         0.5877
     28 O2         -5.8303    3.0549   -8.7540 O.2       1 <0>        -0.5087
     29 C22        -6.6104    1.6950  -10.4843 C.ar      1 <0>        -0.1318
     30 C23        -7.7387    1.3452  -11.2302 C.ar      1 <0>        -0.1030
     31 C24        -7.5943    0.6675  -12.4212 C.ar      1 <0>        -0.1865
     32 C25        -6.3291    0.3304  -12.8828 C.ar      1 <0>         0.1312
     33 C26        -5.1991    0.6760  -12.1433 C.ar      1 <0>         0.1014
     34 C27        -5.3366    1.3609  -10.9515 C.ar      1 <0>        -0.1147
     35 O3         -3.9611    0.3436  -12.5977 O.3       1 <0>        -0.3007
     36 C28        -2.8480    0.7293  -11.7889 C.3       1 <0>         0.0213
     37 O4         -6.1921   -0.3379  -14.0570 O.3       1 <0>        -0.2977
     38 C29        -7.3916   -0.6611  -14.7633 C.3       1 <0>         0.0237
     39 H2         -3.9084   -2.0528    2.0009 H         1 <0>         0.0709
     40 H3         -4.7830   -1.6147    3.4880 H         1 <0>         0.0736
     41 H4         -5.4535   -2.8458    2.3911 H         1 <0>         0.0573
     42 H5         -4.8993    0.7387    2.9222 H         1 <0>         0.1277
     43 H6         -6.1009    2.5073    1.7096 H         1 <0>         0.1246
     44 H7         -7.5174    1.9548   -0.2042 H         1 <0>         0.1187
     45 H8         -7.9978   -2.9007   -1.7088 H         1 <0>         0.1668
     46 H9         -6.4134   -3.2341    0.2575 H         1 <0>         0.4174
     47 H10        -9.4891   -0.8847   -2.5377 H         1 <0>         0.0711
     48 H11        -9.2699    0.6792   -1.7165 H         1 <0>         0.0774
     49 H12        -7.1740    1.0530   -2.9878 H         1 <0>         0.0736
     50 H13        -7.3931   -0.5110   -3.8089 H         1 <0>         0.0685
     51 H14        -9.7312    1.0277   -4.1863 H         1 <0>         0.3974
     52 H15        -8.9467    4.0039   -7.6186 H         1 <0>         0.0882
     53 H16        -7.4406    3.4844   -6.8009 H         1 <0>         0.1037
     54 H17        -9.8779    2.1600   -9.3826 H         1 <0>         0.0889
     55 H18        -8.8494    0.6961   -9.4627 H         1 <0>         0.0938
     56 H19       -11.5555    0.9000   -6.4839 H         1 <0>         0.0987
     57 H20       -11.5564    2.0822   -7.8154 H         1 <0>         0.1229
     58 H21       -12.7830    0.0106   -8.4409 H         1 <0>         0.1407
     59 H22       -11.3419    0.2446   -9.4585 H         1 <0>         0.1320
     60 H23       -11.4606   -1.4587   -7.0729 H         1 <0>         0.4284
     61 H24        -9.3492   -2.2945   -7.8617 H         1 <0>         0.1386
     62 H25        -9.4122   -1.0507   -9.1330 H         1 <0>         0.1325
     63 H26        -8.0435   -0.2760   -7.2227 H         1 <0>         0.1219
     64 H27        -9.4207   -0.5332   -6.1238 H         1 <0>         0.0989
     65 H28        -8.7241    1.6056  -10.8731 H         1 <0>         0.1356
     66 H29        -8.4674    0.3977  -12.9968 H         1 <0>         0.1422
     67 H30        -4.4618    1.6336  -10.3799 H         1 <0>         0.1502
     68 H31        -2.8378    1.8136  -11.6779 H         1 <0>         0.0609
     69 H32        -2.9341    0.2644  -10.8067 H         1 <0>         0.0580
     70 H33        -1.9230    0.4041  -12.2649 H         1 <0>         0.1085
     71 H34        -8.0221   -1.2935  -14.1383 H         1 <0>         0.0552
     72 H35        -7.9269    0.2560  -15.0090 H         1 <0>         0.0594
     73 H36        -7.1407   -1.1925  -15.6814 H         1 <0>         0.1074
     74 H37       -11.5628   -2.0005   -8.6239 H         1 <0>         0.4339
@<TRIPOS>BOND
     1    1   39 1
     2    1   40 1
     3    1   41 1
     4    1    2 1
     5    2   10 ar
     6    2    3 ar
     7    3   42 1
     8    3    4 ar
     9    4   43 1
    10    4    5 ar
    11    5   44 1
    12    5    6 ar
    13    6   10 ar
    14    6    7 1
    15    7   11 1
    16    7    8 2
    17    8    9 1
    18    8   45 1
    19    9   46 1
    20    9   10 1
    21   11   12 1
    22   11   47 1
    23   11   48 1
    24   12   13 1
    25   12   49 1
    26   12   50 1
    27   13   14 am
    28   13   51 1
    29   14   15 2
    30   14   16 1
    31   16   17 1
    32   16   21 1
    33   16   18 1
    34   18   19 1
    35   18   52 1
    36   18   53 1
    37   19   20 1
    38   19   27 am
    39   20   21 1
    40   20   54 1
    41   20   55 1
    42   21   26 1
    43   21   22 1
    44   22   23 1
    45   22   56 1
    46   22   57 1
    47   23   24 1
    48   23   58 1
    49   23   59 1
    50   24   25 1
    51   24   60 1
    52   24   74 1
    53   25   26 1
    54   25   61 1
    55   25   62 1
    56   26   63 1
    57   26   64 1
    58   27   28 2
    59   27   29 1
    60   29   34 ar
    61   29   30 ar
    62   30   31 ar
    63   30   65 1
    64   31   32 ar
    65   31   66 1
    66   32   33 ar
    67   32   37 1
    68   33   34 ar
    69   33   35 1
    70   34   67 1
    71   35   36 1
    72   36   68 1
    73   36   69 1
    74   36   70 1
    75   37   38 1
    76   38   71 1
    77   38   72 1
    78   38   73 1
