@<TRIPOS>MOLECULE
ZINC08453716
   89    93     0     0     0
SMALL
USER_CHARGES
4-[[17-(1,5-dimethylhexyl)-10,12-dimethyl-1,2,3,4,7,8,9,11,12,13,14,15,16,17-tetradecahydrocyclopenta[a]phenanthren-3-yl]oxycarbonyloxy]benzaldehyde
@<TRIPOS>ATOM
      1 C1          2.3987   -2.1718   -3.7659 C.3       1 <0>        -0.1462
      2 C2          1.2105   -1.2475   -4.0398 C.3       1 <0>        -0.0804
      3 H1          0.6491   -1.6085   -4.9015 H         1 <0>         0.0690
      4 C3          0.2954   -1.1848   -2.8010 C.3       1 <0>        -0.1102
      5 C4          0.3396    0.2240   -2.2084 C.3       1 <0>        -0.0702
      6 H2          1.3829    0.4772   -2.0200 H         1 <0>         0.0731
      7 C5         -0.2366    1.2466   -3.1947 C.3       1 <0>        -0.0695
      8 H3         -1.3094    1.0876   -3.3033 H         1 <0>         0.0716
      9 C6          0.0224    2.6452   -2.6285 C.3       1 <0>        -0.0830
     10 C7         -0.5776    2.7259   -1.2528 C.2       1 <0>        -0.1429
     11 C8         -0.7558    1.6904   -0.4988 C.2       1 <0>        -0.1090
     12 C9         -0.4132    0.2812   -0.8914 C.3       1 <0>        -0.0138
     13 C10         0.4213   -0.3669    0.2169 C.3       1 <0>        -0.1013
     14 C11        -0.3198   -0.2481    1.5497 C.3       1 <0>        -0.1188
     15 C12        -0.4820    1.2280    1.9176 C.3       1 <0>         0.1085
     16 H4          0.4967    1.7073    1.9388 H         1 <0>         0.0944
     17 C13        -1.3659    1.9171    0.8739 C.3       1 <0>        -0.1033
     18 O1         -1.1029    1.3363    3.2257 O.3       1 <0>        -0.3194
     19 C14        -0.7839    2.4136    3.9659 C.2       1 <0>         0.5991
     20 O2         -0.0083    3.2408    3.5314 O.2       1 <0>        -0.5256
     21 O3         -1.3246    2.5745    5.1881 O.3       1 <0>        -0.2646
     22 C15        -0.8830    3.6263    5.9237 C.ar      1 <0>         0.1210
     23 C16        -0.0063    3.4124    6.9814 C.ar      1 <0>        -0.1233
     24 C17         0.4490    4.4760    7.7269 C.ar      1 <0>        -0.0466
     25 C18         0.0188    5.7739    7.4257 C.ar      1 <0>        -0.1835
     26 C19        -0.8686    5.9831    6.3631 C.ar      1 <0>        -0.0533
     27 C20        -1.3134    4.9132    5.6204 C.ar      1 <0>        -0.1247
     28 C21         0.4971    6.9123    8.2215 C.2       1 <0>         0.3824
     29 O4          1.2658    6.7287    9.1415 O.2       1 <0>        -0.4530
     30 C22        -1.7143   -0.5095   -1.0422 C.3       1 <0>        -0.1472
     31 C23         0.4584    1.0671   -4.5291 C.3       1 <0>        -0.0856
     32 H5         -0.2172    0.6046   -5.2486 H         1 <0>         0.0718
     33 C24         1.7010    0.1659   -4.2953 C.3       1 <0>        -0.0883
     34 H6          2.2619    0.5262   -3.4330 H         1 <0>         0.0848
     35 C25         2.5320    0.3790   -5.5651 C.3       1 <0>        -0.0784
     36 H7          2.2639   -0.3746   -6.3055 H         1 <0>         0.0674
     37 C26         2.1646    1.7911   -6.0813 C.3       1 <0>        -0.1222
     38 C27         1.0773    2.3405   -5.1201 C.3       1 <0>        -0.1199
     39 C28         4.0272    0.3035   -5.2493 C.3       1 <0>        -0.0848
     40 H8          4.2535   -0.6589   -4.7904 H         1 <0>         0.0717
     41 C29         4.8299    0.4529   -6.5433 C.3       1 <0>        -0.1489
     42 C30         4.4020    1.4296   -4.2838 C.3       1 <0>        -0.1154
     43 C31         5.8613    1.2678   -3.8534 C.3       1 <0>        -0.1223
     44 C32         6.2361    2.3939   -2.8878 C.3       1 <0>        -0.1143
     45 C33         7.6954    2.2321   -2.4575 C.3       1 <0>        -0.0977
     46 C34         8.6086    2.4186   -3.6708 C.3       1 <0>        -0.1491
     47 C35         8.0341    3.2827   -1.3980 C.3       1 <0>        -0.1491
     48 H9          2.9950   -1.7647   -2.9493 H         1 <0>         0.0534
     49 H10         2.0334   -3.1613   -3.4909 H         1 <0>         0.0516
     50 H11         3.0141   -2.2478   -4.6623 H         1 <0>         0.0554
     51 H12         0.6405   -1.9031   -2.0573 H         1 <0>         0.0656
     52 H13        -0.7272   -1.4251   -3.0918 H         1 <0>         0.0650
     53 H14         1.0962    2.8231   -2.5702 H         1 <0>         0.0779
     54 H15        -0.4400    3.3923   -3.2736 H         1 <0>         0.0728
     55 H16        -0.8667    3.6958   -0.8756 H         1 <0>         0.1047
     56 H17         0.5813   -1.4194   -0.0172 H         1 <0>         0.0807
     57 H18         1.3838    0.1393    0.2901 H         1 <0>         0.0676
     58 H19        -1.3031   -0.7101    1.4607 H         1 <0>         0.0836
     59 H20         0.2499   -0.7555    2.3282 H         1 <0>         0.0772
     60 H21        -1.4127    2.9861    1.0819 H         1 <0>         0.0758
     61 H22        -2.3686    1.4908    0.9041 H         1 <0>         0.0846
     62 H23         0.3216    2.4104    7.2157 H         1 <0>         0.1419
     63 H24         1.1337    4.3093    8.5453 H         1 <0>         0.1461
     64 H25        -1.2038    6.9822    6.1269 H         1 <0>         0.1453
     65 H26        -1.9976    5.0735    4.8003 H         1 <0>         0.1382
     66 H27         0.1643    7.9127    7.9873 H         1 <0>         0.1120
     67 H28        -2.2637   -0.4880   -0.1010 H         1 <0>         0.0563
     68 H29        -2.3225   -0.0618   -1.8282 H         1 <0>         0.0569
     69 H30        -1.4837   -1.5419   -1.3048 H         1 <0>         0.0638
     70 H31         1.7697    1.7276   -7.0953 H         1 <0>         0.0580
     71 H32         3.0421    2.4374   -6.0618 H         1 <0>         0.0687
     72 H33         0.3300    2.9121   -5.6706 H         1 <0>         0.0615
     73 H34         1.5257    2.9504   -4.3358 H         1 <0>         0.0716
     74 H35         4.6838    1.4544   -6.9479 H         1 <0>         0.0542
     75 H36         5.8882    0.2962   -6.3344 H         1 <0>         0.0535
     76 H37         4.4896   -0.2855   -7.2692 H         1 <0>         0.0511
     77 H38         4.2741    2.3915   -4.7802 H         1 <0>         0.0633
     78 H39         3.7573    1.3853   -3.4060 H         1 <0>         0.0626
     79 H40         5.9892    0.3059   -3.3569 H         1 <0>         0.0577
     80 H41         6.5060    1.3122   -4.7312 H         1 <0>         0.0651
     81 H42         6.1082    3.3559   -3.3843 H         1 <0>         0.0599
     82 H43         5.5914    2.3496   -2.0101 H         1 <0>         0.0589
     83 H44         7.8431    1.2356   -2.0413 H         1 <0>         0.0672
     84 H45         9.6482    2.3033   -3.3642 H         1 <0>         0.0518
     85 H46         8.3673    1.6702   -4.4256 H         1 <0>         0.0561
     86 H47         8.4609    3.4151   -4.0870 H         1 <0>         0.0531
     87 H48         7.3835    3.1498   -0.5336 H         1 <0>         0.0530
     88 H49         9.0737    3.1674   -1.0914 H         1 <0>         0.0533
     89 H50         7.8864    4.2792   -1.8141 H         1 <0>         0.0535
@<TRIPOS>BOND
     1    1    2 1
     2    1   48 1
     3    1   49 1
     4    1   50 1
     5    2    3 1
     6    2   33 1
     7    2    4 1
     8    4    5 1
     9    4   51 1
    10    4   52 1
    11    5    6 1
    12    5   12 1
    13    5    7 1
    14    7    8 1
    15    7    9 1
    16    7   31 1
    17    9   10 1
    18    9   53 1
    19    9   54 1
    20   10   11 2
    21   10   55 1
    22   11   17 1
    23   11   12 1
    24   12   13 1
    25   12   30 1
    26   13   14 1
    27   13   56 1
    28   13   57 1
    29   14   15 1
    30   14   58 1
    31   14   59 1
    32   15   16 1
    33   15   17 1
    34   15   18 1
    35   17   60 1
    36   17   61 1
    37   18   19 1
    38   19   20 2
    39   19   21 1
    40   21   22 1
    41   22   27 ar
    42   22   23 ar
    43   23   24 ar
    44   23   62 1
    45   24   25 ar
    46   24   63 1
    47   25   26 ar
    48   25   28 1
    49   26   27 ar
    50   26   64 1
    51   27   65 1
    52   28   29 2
    53   28   66 1
    54   30   67 1
    55   30   68 1
    56   30   69 1
    57   31   32 1
    58   31   38 1
    59   31   33 1
    60   33   34 1
    61   33   35 1
    62   35   36 1
    63   35   37 1
    64   35   39 1
    65   37   38 1
    66   37   70 1
    67   37   71 1
    68   38   72 1
    69   38   73 1
    70   39   40 1
    71   39   41 1
    72   39   42 1
    73   41   74 1
    74   41   75 1
    75   41   76 1
    76   42   43 1
    77   42   77 1
    78   42   78 1
    79   43   44 1
    80   43   79 1
    81   43   80 1
    82   44   45 1
    83   44   81 1
    84   44   82 1
    85   45   46 1
    86   45   47 1
    87   45   83 1
    88   46   84 1
    89   46   85 1
    90   46   86 1
    91   47   87 1
    92   47   88 1
    93   47   89 1
