@<TRIPOS>MOLECULE
ZINC29150559
   75    77     0     0     0
SMALL
USER_CHARGES
1-[4-(4-acetyl-2-fluoro-phenyl)piperazin-1-yl]-2-[[(1R)-1-(3,4-diethoxyphenyl)-2-methyl-propyl]amino]ethanone
@<TRIPOS>ATOM
      1 C1          1.0269    3.5357    0.0112 C.3       1 <0>        -0.1580
      2 C2          1.2479    2.0217    0.0010 C.3       1 <0>         0.0495
      3 O1         -0.0164    1.3557    0.0095 O.3       1 <0>        -0.2956
      4 C3          0.0021   -0.0041    0.0020 C.ar      1 <0>         0.1349
      5 C4          1.2104   -0.6820   -0.0189 C.ar      1 <0>        -0.1678
      6 C5          1.2274   -2.0643   -0.0211 C.ar      1 <0>        -0.1125
      7 C6          0.0406   -2.7733   -0.0131 C.ar      1 <0>        -0.1400
      8 C7         -1.1684   -2.1031    0.0020 C.ar      1 <0>        -0.1469
      9 C8         -1.1925   -0.7177    0.0096 C.ar      1 <0>         0.1170
     10 O2         -2.3810   -0.0569    0.0249 O.3       1 <0>        -0.2956
     11 C9         -3.5667   -0.8544    0.0319 C.3       1 <0>         0.0517
     12 C10        -4.7949    0.0579    0.0490 C.3       1 <0>        -0.1588
     13 C11         0.0648   -4.2801   -0.0214 C.3       1 <0>         0.0971
     14 H1         -0.8853   -4.6689    0.3737 H         1 <0>         0.1412
     15 C12         0.3100   -4.7784   -1.4471 C.3       1 <0>        -0.1045
     16 C13        -0.8119   -4.2814   -2.3610 C.3       1 <0>        -0.1530
     17 C14         1.6523   -4.2439   -1.9504 C.3       1 <0>        -0.1772
     18 N1          1.1420   -4.7573    0.8561 N.4       1 <0>        -0.5309
     19 C15         0.8588   -6.1121    1.3483 C.3       1 <0>        -0.0300
     20 C16         1.9830   -6.5668    2.2430 C.2       1 <0>         0.5016
     21 O3          2.9272   -5.8343    2.4502 O.2       1 <0>        -0.5292
     22 N2          1.9392   -7.7873    2.8129 N.am      1 <0>        -0.5904
     23 C17         0.8007   -8.6888    2.5798 C.3       1 <0>         0.0998
     24 C18         1.3500  -10.0543    2.1369 C.3       1 <0>         0.0419
     25 N3          2.3246  -10.5291    3.1281 N.pl3     1 <0>        -0.4979
     26 C19         3.4845   -9.6311    3.2074 C.3       1 <0>         0.0425
     27 C20         3.0257   -8.2507    3.6892 C.3       1 <0>         0.1126
     28 C21         2.7216  -11.8325    2.8519 C.ar      1 <0>         0.0721
     29 C22         3.4169  -12.1126    1.6787 C.ar      1 <0>        -0.1303
     30 C23         3.8105  -13.3902    1.4007 C.ar      1 <0>        -0.0627
     31 C24         3.5153  -14.4260    2.2961 C.ar      1 <0>        -0.1345
     32 C25         2.8151  -14.1475    3.4777 C.ar      1 <0>        -0.1021
     33 C26         2.4271  -12.8553    3.7536 C.ar      1 <0>         0.1208
     34 F1          1.7570  -12.5793    4.8938 F         1 <0>        -0.1200
     35 C27         3.9376  -15.7994    1.9976 C.2       1 <0>         0.3931
     36 O4          4.5433  -16.0387    0.9741 O.2       1 <0>        -0.4443
     37 C28         3.6189  -16.9123    2.9624 C.3       1 <0>        -0.2070
     38 H2          2.0001    4.0483    0.0047 H         1 <0>         0.0854
     39 H3          0.4694    3.8188    0.9162 H         1 <0>         0.0706
     40 H4          0.4523    3.8284   -0.8800 H         1 <0>         0.0708
     41 H5          1.8054    1.7386   -0.9040 H         1 <0>         0.0671
     42 H6          1.8225    1.7290    0.8921 H         1 <0>         0.0670
     43 H7          2.1389   -0.1305   -0.0293 H         1 <0>         0.1463
     44 H8          2.1699   -2.5915   -0.0333 H         1 <0>         0.1269
     45 H9         -2.0942   -2.6593    0.0082 H         1 <0>         0.1434
     46 H10        -3.5903   -1.4842   -0.8696 H         1 <0>         0.0646
     47 H11        -3.5729   -1.4944    0.9265 H         1 <0>         0.0635
     48 H12        -5.7076   -0.5560    0.0544 H         1 <0>         0.0844
     49 H13        -4.7887    0.6979   -0.8456 H         1 <0>         0.0713
     50 H14        -4.7713    0.6877    0.9505 H         1 <0>         0.0709
     51 H15         0.3278   -5.8782   -1.4532 H         1 <0>         0.0941
     52 H16        -0.6356   -4.6396   -3.3860 H         1 <0>         0.0774
     53 H17        -0.8296   -3.1816   -2.3549 H         1 <0>         0.0722
     54 H18        -1.7770   -4.6657   -1.9991 H         1 <0>         0.0663
     55 H19         1.8285   -4.6022   -2.9754 H         1 <0>         0.0880
     56 H20         2.4589   -4.6012   -1.2933 H         1 <0>         0.0491
     57 H21         1.6345   -3.1441   -1.9444 H         1 <0>         0.0858
     58 H22         2.0892   -4.7759    0.2971 H         1 <0>         0.4484
     59 H23        -0.0828   -6.1062    1.9169 H         1 <0>         0.1600
     60 H24         0.7677   -6.8006    0.4952 H         1 <0>         0.1568
     61 H25         0.2231   -8.7979    3.5095 H         1 <0>         0.1002
     62 H26         0.1553   -8.2688    1.7943 H         1 <0>         0.0924
     63 H27         0.5224  -10.7747    2.0593 H         1 <0>         0.1024
     64 H28         1.8403   -9.9522    1.1575 H         1 <0>         0.0515
     65 H29         4.2189  -10.0425    3.9155 H         1 <0>         0.1030
     66 H30         3.9457   -9.5391    2.2130 H         1 <0>         0.0517
     67 H31         3.8634   -7.5393    3.6421 H         1 <0>         0.1097
     68 H32         2.6590   -8.3173    4.7241 H         1 <0>         0.0940
     69 H33         3.6462  -11.3163    0.9861 H         1 <0>         0.1330
     70 H34         4.3503  -13.6021    0.4896 H         1 <0>         0.1431
     71 H35         2.5849  -14.9424    4.1716 H         1 <0>         0.1541
     72 H36         4.0126  -17.8616    2.5701 H         1 <0>         0.0927
     73 H37         2.5285  -16.9903    3.0850 H         1 <0>         0.0984
     74 H38         4.0829  -16.6974    3.9363 H         1 <0>         0.0986
     75 H39         1.2387   -4.0817    1.7188 H         1 <0>         0.4588
@<TRIPOS>BOND
     1    1    2 1
     2    1   38 1
     3    1   39 1
     4    1   40 1
     5    2    3 1
     6    2   41 1
     7    2   42 1
     8    3    4 1
     9    4    9 ar
    10    4    5 ar
    11    5    6 ar
    12    5   43 1
    13    6    7 ar
    14    6   44 1
    15    7    8 ar
    16    7   13 1
    17    8    9 ar
    18    8   45 1
    19    9   10 1
    20   10   11 1
    21   11   12 1
    22   11   46 1
    23   11   47 1
    24   12   48 1
    25   12   49 1
    26   12   50 1
    27   13   14 1
    28   13   15 1
    29   13   18 1
    30   15   16 1
    31   15   17 1
    32   15   51 1
    33   16   52 1
    34   16   53 1
    35   16   54 1
    36   17   55 1
    37   17   56 1
    38   17   57 1
    39   18   19 1
    40   18   58 1
    41   18   75 1
    42   19   20 1
    43   19   59 1
    44   19   60 1
    45   20   21 2
    46   20   22 am
    47   22   27 1
    48   22   23 1
    49   23   24 1
    50   23   61 1
    51   23   62 1
    52   24   25 1
    53   24   63 1
    54   24   64 1
    55   25   26 1
    56   25   28 1
    57   26   27 1
    58   26   65 1
    59   26   66 1
    60   27   67 1
    61   27   68 1
    62   28   33 ar
    63   28   29 ar
    64   29   30 ar
    65   29   69 1
    66   30   31 ar
    67   30   70 1
    68   31   32 ar
    69   31   35 1
    70   32   33 ar
    71   32   71 1
    72   33   34 1
    73   35   36 2
    74   35   37 1
    75   37   72 1
    76   37   73 1
    77   37   74 1
