@<TRIPOS>MOLECULE
ZINC19292627
   36    38     0     0     0
SMALL
USER_CHARGES
(1R)-N-[(2,3-dichlorophenyl)methyl]-1-thiazol-2-yl-2-(3-thienyl)ethanamine
@<TRIPOS>ATOM
      1 C1         -3.9758    4.6784    5.1378 C.ar      1 <0>        -0.1045
      2 C2         -2.9374    4.5644    4.2320 C.ar      1 <0>        -0.0976
      3 C3         -2.6651    5.5997    3.3579 C.ar      1 <0>        -0.0684
      4 C4         -3.4283    6.7531    3.3926 C.ar      1 <0>        -0.0104
      5 C5         -4.4713    6.8651    4.2961 C.ar      1 <0>        -0.0357
      6 C6         -4.7425    5.8277    5.1703 C.ar      1 <0>        -0.0970
      7 Cl1        -5.4342    8.3090    4.3364 Cl        1 <0>        -0.0471
      8 Cl2        -3.0822    8.0567    2.2997 Cl        1 <0>        -0.0243
      9 C7         -1.5328    5.4748    2.3713 C.3       1 <0>         0.0865
     10 N1         -2.0774    5.2267    1.0298 N.3       1 <0>        -0.6377
     11 C8         -0.9999    5.0991    0.0395 C.3       1 <0>         0.1763
     12 H1         -0.1886    5.7789    0.3388 H         1 <0>         0.1130
     13 C9         -1.5357    5.4625   -1.3468 C.3       1 <0>        -0.0422
     14 C10        -1.9269    6.9177   -1.3686 C.2       1 <0>        -0.1184
     15 C11        -1.0081    7.8858   -1.7280 C.2       1 <0>        -0.1493
     16 C12        -1.3923    9.1856   -1.7372 C.2       1 <0>        -0.1788
     17 S1         -3.0992    9.0697   -1.2270 S.3       1 <0>         0.0174
     18 C13        -3.1867    7.2963   -1.0414 C.2       1 <0>        -0.1248
     19 C14        -0.4951    3.6793    0.0266 C.2       1 <0>         0.0575
     20 N2          0.7438    3.2445    0.0124 N.2       1 <0>        -0.5008
     21 C15         1.0198    1.9572    0.0028 C.2       1 <0>         0.0264
     22 C16        -0.0126    1.0758    0.0080 C.2       1 <0>        -0.2055
     23 S2         -1.4027    2.1987    0.0193 S.3       1 <0>         0.0428
     24 H2         -4.1880    3.8686    5.8202 H         1 <0>         0.1387
     25 H3         -2.3390    3.6657    4.2072 H         1 <0>         0.1340
     26 H4         -5.5537    5.9159    5.8779 H         1 <0>         0.1417
     27 H5         -0.9489    6.4070    2.3634 H         1 <0>         0.0956
     28 H6         -0.8824    4.6373    2.6637 H         1 <0>         0.0489
     29 H7         -2.6613    4.2945    1.0378 H         1 <0>         0.3410
     30 H8         -0.7553    5.2813   -2.1006 H         1 <0>         0.0801
     31 H9         -2.4157    4.8428   -1.5738 H         1 <0>         0.0799
     32 H10         0.0008    7.6106   -1.9977 H         1 <0>         0.1294
     33 H11        -0.8156   10.0635   -1.9884 H         1 <0>         0.1809
     34 H12        -4.0253    6.6840   -0.7445 H         1 <0>         0.1826
     35 H13         2.0427    1.6109   -0.0092 H         1 <0>         0.1710
     36 H14         0.0021   -0.0041    0.0020 H         1 <0>         0.1990
@<TRIPOS>BOND
     1    1    6 ar
     2    1    2 ar
     3    1   24 1
     4    2    3 ar
     5    2   25 1
     6    3    4 ar
     7    3    9 1
     8    4    5 ar
     9    4    8 1
    10    5    6 ar
    11    5    7 1
    12    6   26 1
    13    9   10 1
    14    9   27 1
    15    9   28 1
    16   10   11 1
    17   10   29 1
    18   11   12 1
    19   11   13 1
    20   11   19 1
    21   13   14 1
    22   13   30 1
    23   13   31 1
    24   14   18 2
    25   14   15 1
    26   15   16 2
    27   15   32 1
    28   16   17 1
    29   16   33 1
    30   17   18 1
    31   18   34 1
    32   19   23 1
    33   19   20 2
    34   20   21 1
    35   21   22 2
    36   21   35 1
    37   22   23 1
    38   22   36 1
