@<TRIPOS>MOLECULE
ZINC01329279
   71    74     0     0     0
SMALL
USER_CHARGES
1-[2-(3,4-dimethoxyphenyl)ethyl]-1-[(6,7-dimethyl-2-oxo-1H-quinolin-3-yl)methyl]-3-(3-methoxyphenyl)thiourea
@<TRIPOS>ATOM
      1 C1        -10.6235    3.3601    4.9178 C.3       1 <0>        -0.1187
      2 C2         -9.6156    4.1757    4.1497 C.ar      1 <0>        -0.1132
      3 C3         -8.7386    3.5509    3.3086 C.ar      1 <0>        -0.0484
      4 C4         -7.8030    4.3075    2.5960 C.ar      1 <0>        -0.1400
      5 C5         -6.8491    3.6705    1.6860 C.2       1 <0>         0.0145
      6 C6         -5.9754    4.4565    1.0096 C.2       1 <0>        -0.2185
      7 C7         -5.9842    5.8552    1.1985 C.2       1 <0>         0.5465
      8 O1         -5.1838    6.5422    0.5878 O.2       1 <0>        -0.5329
      9 N1         -6.8531    6.4488    2.0354 N.am      1 <0>        -0.6270
     10 H1         -6.8321    7.4128    2.1414 H         1 <0>         0.4181
     11 C8         -7.7738    5.7072    2.7447 C.ar      1 <0>         0.1905
     12 C9         -8.6729    6.3205    3.6106 C.ar      1 <0>        -0.1644
     13 C10        -9.5862    5.5548    4.3032 C.ar      1 <0>        -0.0200
     14 C11       -10.5632    6.2221    5.2365 C.3       1 <0>        -0.1278
     15 C12        -4.9833    3.8332    0.0619 C.3       1 <0>         0.1434
     16 N2         -5.5251    3.8595   -1.2990 N.pl3     1 <0>        -0.5158
     17 C13        -5.1792    4.9583   -2.2041 C.3       1 <0>         0.0970
     18 C14        -3.9167    4.5949   -2.9883 C.3       1 <0>        -0.0845
     19 C15        -3.5609    5.7253   -3.9193 C.ar      1 <0>        -0.0786
     20 C16        -4.0685    5.7456   -5.2051 C.ar      1 <0>        -0.1008
     21 C17        -3.7496    6.7832   -6.0611 C.ar      1 <0>        -0.1713
     22 C18        -2.9104    7.8000   -5.6347 C.ar      1 <0>         0.0987
     23 C19        -2.3949    7.7766   -4.3424 C.ar      1 <0>         0.0987
     24 C20        -2.7230    6.7366   -3.4876 C.ar      1 <0>        -0.1641
     25 O2         -1.5712    8.7725   -3.9191 O.3       1 <0>        -0.3070
     26 C21        -1.0801    8.6832   -2.5801 C.3       1 <0>         0.0263
     27 O3         -2.5916    8.8189   -6.4772 O.3       1 <0>        -0.3077
     28 C22        -3.1574    8.7773   -7.7887 C.3       1 <0>         0.0259
     29 C23        -6.3418    2.8728   -1.7183 C.2       1 <0>         0.5613
     30 S1         -6.8825    2.8412   -3.3424 S.2       1 <0>        -0.5488
     31 N3         -6.7328    1.9108   -0.8591 N.pl3     1 <0>        -0.6983
     32 C24        -5.8701    0.8528   -0.5539 C.ar      1 <0>         0.2299
     33 C25        -4.5782    0.8390   -1.0650 C.ar      1 <0>        -0.2141
     34 C26        -3.7246   -0.2028   -0.7589 C.ar      1 <0>        -0.0320
     35 C27        -4.1564   -1.2395    0.0469 C.ar      1 <0>        -0.2421
     36 C28        -5.4475   -1.2338    0.5555 C.ar      1 <0>         0.1714
     37 C29        -6.3053   -0.1872    0.2552 C.ar      1 <0>        -0.2044
     38 O4         -5.8708   -2.2540    1.3473 O.3       1 <0>        -0.3148
     39 C30        -4.9337   -3.2991    1.6152 C.3       1 <0>         0.0267
     40 H2        -11.5366    3.2637    4.3304 H         1 <0>         0.0738
     41 H3        -10.2136    2.3700    5.1172 H         1 <0>         0.0692
     42 H4        -10.8493    3.8566    5.8615 H         1 <0>         0.0735
     43 H5         -8.7676    2.4773    3.1948 H         1 <0>         0.1374
     44 H6         -6.8493    2.5994    1.5476 H         1 <0>         0.1434
     45 H7         -8.6586    7.3931    3.7364 H         1 <0>         0.1362
     46 H8        -11.4688    6.4830    4.6887 H         1 <0>         0.0807
     47 H9        -10.8138    5.5397    6.0487 H         1 <0>         0.0791
     48 H10       -10.1138    7.1263    5.6472 H         1 <0>         0.0719
     49 H11        -4.0496    4.3949    0.0921 H         1 <0>         0.1127
     50 H12        -4.7963    2.8012    0.3586 H         1 <0>         0.1058
     51 H13        -6.0016    5.1296   -2.8986 H         1 <0>         0.1133
     52 H14        -4.9988    5.8635   -1.6243 H         1 <0>         0.1055
     53 H15        -3.0943    4.4237   -2.2937 H         1 <0>         0.0718
     54 H16        -4.0971    3.6897   -3.5681 H         1 <0>         0.0887
     55 H17        -4.7192    4.9514   -5.5400 H         1 <0>         0.1331
     56 H18        -4.1511    6.7990   -7.0636 H         1 <0>         0.1359
     57 H19        -2.3240    6.7159   -2.4842 H         1 <0>         0.1342
     58 H20        -1.9194    8.6819   -1.8847 H         1 <0>         0.0556
     59 H21        -0.5097    7.7617   -2.4630 H         1 <0>         0.0538
     60 H22        -0.4366    9.5378   -2.3714 H         1 <0>         0.0999
     61 H23        -2.8354    7.8672   -8.2947 H         1 <0>         0.0551
     62 H24        -4.2450    8.7870   -7.7158 H         1 <0>         0.0552
     63 H25        -2.8236    9.6460   -8.3562 H         1 <0>         0.1003
     64 H26        -7.6125    1.9522   -0.4524 H         1 <0>         0.4244
     65 H27        -4.2400    1.6455   -1.6988 H         1 <0>         0.1218
     66 H28        -2.7194   -0.2098   -1.1538 H         1 <0>         0.1302
     67 H29        -3.4882   -2.0551    0.2806 H         1 <0>         0.1303
     68 H30        -7.3104   -0.1809    0.6505 H         1 <0>         0.1352
     69 H31        -4.6291   -3.7633    0.6772 H         1 <0>         0.0584
     70 H32        -4.0591   -2.8834    2.1157 H         1 <0>         0.0577
     71 H33        -5.3980   -4.0477    2.2571 H         1 <0>         0.1021
@<TRIPOS>BOND
     1    1    2 1
     2    1   40 1
     3    1   41 1
     4    1   42 1
     5    2   13 ar
     6    2    3 ar
     7    3    4 ar
     8    3   43 1
     9    4   11 ar
    10    4    5 1
    11    5    6 2
    12    5   44 1
    13    6    7 1
    14    6   15 1
    15    7    8 2
    16    7    9 am
    17    9   10 1
    18    9   11 1
    19   11   12 ar
    20   12   13 ar
    21   12   45 1
    22   13   14 1
    23   14   46 1
    24   14   47 1
    25   14   48 1
    26   15   16 1
    27   15   49 1
    28   15   50 1
    29   16   17 1
    30   16   29 1
    31   17   18 1
    32   17   51 1
    33   17   52 1
    34   18   19 1
    35   18   53 1
    36   18   54 1
    37   19   24 ar
    38   19   20 ar
    39   20   21 ar
    40   20   55 1
    41   21   22 ar
    42   21   56 1
    43   22   23 ar
    44   22   27 1
    45   23   24 ar
    46   23   25 1
    47   24   57 1
    48   25   26 1
    49   26   58 1
    50   26   59 1
    51   26   60 1
    52   27   28 1
    53   28   61 1
    54   28   62 1
    55   28   63 1
    56   29   30 2
    57   29   31 1
    58   31   32 1
    59   31   64 1
    60   32   37 ar
    61   32   33 ar
    62   33   34 ar
    63   33   65 1
    64   34   35 ar
    65   34   66 1
    66   35   36 ar
    67   35   67 1
    68   36   37 ar
    69   36   38 1
    70   37   68 1
    71   38   39 1
    72   39   69 1
    73   39   70 1
    74   39   71 1
