@<TRIPOS>MOLECULE
ZINC28771219
   64    67     0     0     0
SMALL
USER_CHARGES
(Z)-6-[(2R)-2-[(4-chlorophenyl)sulfonylamino]-7-(3-pyridylmethyl)tetralin-5-yl]hex-5-enoic acid
@<TRIPOS>ATOM
      1 C1          9.9492    3.6950    2.0929 C.ar      1 <0>        -0.1703
      2 C2          9.3379    4.4264    3.1001 C.ar      1 <0>        -0.0703
      3 C3          8.4644    5.4414    2.7413 C.ar      1 <0>        -0.1203
      4 C4          8.2424    5.6965    1.4011 C.ar      1 <0>         0.1034
      5 N1          8.8462    4.9844    0.4699 N.ar      1 <0>        -0.4839
      6 C5          9.6790    4.0081    0.7744 C.ar      1 <0>         0.0885
      7 C6          7.7705    6.2603    3.7991 C.3       1 <0>        -0.0416
      8 C7          6.4577    5.6119    4.1555 C.ar      1 <0>        -0.0793
      9 C8          5.3097    5.9521    3.4679 C.ar      1 <0>        -0.1134
     10 C9          4.0896    5.3652    3.7831 C.ar      1 <0>        -0.0713
     11 C10         4.0215    4.4305    4.7884 C.ar      1 <0>        -0.0745
     12 C11         5.1837    4.0830    5.4903 C.ar      1 <0>        -0.0382
     13 C12         6.4014    4.6781    5.1695 C.ar      1 <0>        -0.1021
     14 C13         5.1169    3.0815    6.5754 C.2       1 <0>        -0.1523
     15 C14         5.8362    3.2481    7.6763 C.2       1 <0>        -0.1145
     16 C15         6.5956    4.5316    7.8933 C.3       1 <0>        -0.1134
     17 C16         6.2192    5.1232    9.2532 C.3       1 <0>        -0.0921
     18 C17         6.9901    6.4263    9.4734 C.3       1 <0>        -0.1566
     19 C18         6.6195    7.0090   10.8129 C.2       1 <0>         0.4575
     20 O1          5.8206    6.4404   11.5189 O.co2     1 <0>        -0.6425
     21 O2          7.1767    8.1597   11.2216 O.co2     1 <0>        -0.7786
     22 C19         2.7362    3.7488    5.1778 C.3       1 <0>        -0.0784
     23 C20         1.5333    4.5268    4.6482 C.3       1 <0>        -0.1260
     24 C21         1.7468    4.7869    3.1522 C.3       1 <0>         0.1617
     25 H1          1.9691    3.8561    2.6098 H         1 <0>         0.0778
     26 C22         2.8801    5.7988    2.9964 C.3       1 <0>        -0.0938
     27 N2          0.5183    5.3275    2.5651 N.pl3     1 <0>        -1.1180
     28 S1          0.0949    4.9261    1.0153 S.o2      1 <0>         2.6905
     29 O3          1.2504    5.1285    0.2133 O.2       1 <0>        -0.9479
     30 O4         -1.1401    5.5771    0.7501 O.2       1 <0>        -0.9573
     31 C23        -0.2340    3.1952    0.9968 C.ar      1 <0>        -0.6818
     32 C24        -1.5122    2.7321    1.2476 C.ar      1 <0>        -0.0062
     33 C25        -1.7709    1.3745    1.2328 C.ar      1 <0>        -0.1321
     34 C26        -0.7504    0.4789    0.9669 C.ar      1 <0>         0.0172
     35 C27         0.5286    0.9430    0.7159 C.ar      1 <0>        -0.1305
     36 C28         0.7861    2.3009    0.7311 C.ar      1 <0>        -0.0087
     37 Cl1        -1.0745   -1.2265    0.9486 Cl        1 <0>        -0.0545
     38 H2         10.6321    2.8944    2.3359 H         1 <0>         0.1334
     39 H3          9.5341    4.2075    4.1393 H         1 <0>         0.1339
     40 H4          7.5668    6.4884    1.1132 H         1 <0>         0.1531
     41 H5         10.1550    3.4466   -0.0159 H         1 <0>         0.1526
     42 H6          8.4065    6.3170    4.6948 H         1 <0>         0.0888
     43 H7          7.5863    7.2746    3.4154 H         1 <0>         0.0882
     44 H8          5.3602    6.6837    2.6750 H         1 <0>         0.1199
     45 H9          7.2965    4.4099    5.7111 H         1 <0>         0.1273
     46 H10         4.4703    2.1980    6.4693 H         1 <0>         0.1181
     47 H11         5.8788    2.4495    8.4315 H         1 <0>         0.1168
     48 H12         7.6761    4.3269    7.8689 H         1 <0>         0.0681
     49 H13         6.3400    5.2478    7.0984 H         1 <0>         0.0811
     50 H14         5.1387    5.3278    9.2776 H         1 <0>         0.0600
     51 H15         6.4749    4.4071   10.0481 H         1 <0>         0.0595
     52 H16         8.0706    6.2217    9.4488 H         1 <0>         0.0614
     53 H17         6.7344    7.1424    8.6786 H         1 <0>         0.0617
     54 H18         2.7175    2.7331    4.7559 H         1 <0>         0.0754
     55 H19         2.6690    3.6917    6.2743 H         1 <0>         0.0863
     56 H20         0.6183    3.9357    4.8009 H         1 <0>         0.0754
     57 H21         1.4475    5.4814    5.1880 H         1 <0>         0.0811
     58 H22         2.5366    6.7778    3.3619 H         1 <0>         0.0885
     59 H23         3.1441    5.8771    1.9314 H         1 <0>         0.0890
     60 H24        -0.2047    5.8626    3.1983 H         1 <0>         0.4442
     61 H25        -2.3096    3.4315    1.4508 H         1 <0>         0.1504
     62 H26        -2.7694    1.0128    1.4291 H         1 <0>         0.1445
     63 H27         1.3257    0.2444    0.5087 H         1 <0>         0.1448
     64 H28         1.7845    2.6632    0.5355 H         1 <0>         0.1502
@<TRIPOS>BOND
     1    1    6 ar
     2    1    2 ar
     3    1   38 1
     4    2    3 ar
     5    2   39 1
     6    3    4 ar
     7    3    7 1
     8    4    5 ar
     9    4   40 1
    10    5    6 ar
    11    6   41 1
    12    7    8 1
    13    7   42 1
    14    7   43 1
    15    8   13 ar
    16    8    9 ar
    17    9   10 ar
    18    9   44 1
    19   10   26 1
    20   10   11 ar
    21   11   12 ar
    22   11   22 1
    23   12   13 ar
    24   12   14 1
    25   13   45 1
    26   14   15 2
    27   14   46 1
    28   15   16 1
    29   15   47 1
    30   16   17 1
    31   16   48 1
    32   16   49 1
    33   17   18 1
    34   17   50 1
    35   17   51 1
    36   18   19 1
    37   18   52 1
    38   18   53 1
    39   19   20 2
    40   19   21 1
    41   22   23 1
    42   22   54 1
    43   22   55 1
    44   23   24 1
    45   23   56 1
    46   23   57 1
    47   24   25 1
    48   24   26 1
    49   24   27 1
    50   26   58 1
    51   26   59 1
    52   27   28 1
    53   27   60 1
    54   28   29 2
    55   28   30 2
    56   28   31 1
    57   31   36 ar
    58   31   32 ar
    59   32   33 ar
    60   32   61 1
    61   33   34 ar
    62   33   62 1
    63   34   35 ar
    64   34   37 1
    65   35   36 ar
    66   35   63 1
    67   36   64 1
