@<TRIPOS>MOLECULE
ZINC13405753
   54    57     0     0     0
SMALL
USER_CHARGES
(2R)-2-[3-[(1S)-2-(cyclopropylamino)-1-(4-fluorophenyl)-2-oxo-ethyl]sulfanyl-5-(2-thienyl)-1,2,4-triazol-4-yl]-3-methyl-butanoic acid
@<TRIPOS>ATOM
      1 C1          5.1216   -0.1540    4.7122 C.3       1 <0>        -0.1491
      2 C2          5.1198    1.3026    4.2440 C.3       1 <0>        -0.0910
      3 C3          5.3757    2.2228    5.4393 C.3       1 <0>        -0.1501
      4 C4          6.2203    1.5043    3.2003 C.3       1 <0>         0.0831
      5 H1          7.1879    1.2657    3.6419 H         1 <0>         0.1014
      6 C5          6.2185    2.9390    2.7392 C.2       1 <0>         0.4620
      7 O1          5.4191    3.7201    3.1982 O.co2     1 <0>        -0.5984
      8 N1          5.9752    0.6232    2.0559 N.pl3     1 <0>        -0.4088
      9 C6          6.8039   -0.3658    1.5741 C.2       1 <0>         0.2537
     10 N2          6.1971   -0.9061    0.5402 N.2       1 <0>        -0.2598
     11 N3          5.0622   -0.3344    0.3498 N.2       1 <0>        -0.2695
     12 C7          4.8760    0.6108    1.2427 C.2       1 <0>         0.1500
     13 S1          3.4681    1.6622    1.3731 S.3       1 <0>         0.0856
     14 C8          2.4862    1.0466   -0.0171 C.3       1 <0>        -0.0820
     15 H2          2.3407   -0.0285    0.0887 H         1 <0>         0.1414
     16 C9          1.1462    1.7360   -0.0300 C.ar      1 <0>        -0.0783
     17 C10        -0.0142    0.9889   -0.1101 C.ar      1 <0>        -0.0636
     18 C11        -1.2434    1.6202   -0.1269 C.ar      1 <0>        -0.1493
     19 C12        -1.3128    3.0012   -0.0532 C.ar      1 <0>         0.1047
     20 C13        -0.1499    3.7484    0.0269 C.ar      1 <0>        -0.1430
     21 C14         1.0783    3.1151    0.0387 C.ar      1 <0>        -0.0774
     22 F1         -2.5141    3.6192   -0.0653 F         1 <0>        -0.1385
     23 C15         3.2099    1.3309   -1.3081 C.2       1 <0>         0.5377
     24 O2          3.5738    0.4141   -2.0139 O.2       1 <0>        -0.5005
     25 N4          3.4526    2.6038   -1.6783 N.am      1 <0>        -0.6962
     26 C16         4.0535    2.8849   -2.9846 C.3       1 <0>         0.0849
     27 C17         5.1684    3.9312   -3.0389 C.3       1 <0>        -0.1917
     28 C18         3.7850    4.2574   -3.6051 C.3       1 <0>        -0.1896
     29 C19         8.1193   -0.7459    2.1141 C.2       1 <0>        -0.0772
     30 C20         8.8579   -1.8772    1.8754 C.2       1 <0>        -0.1185
     31 C21        10.0782   -2.0131    2.4983 C.2       1 <0>        -0.1558
     32 C22        10.5072   -1.0335    3.3355 C.2       1 <0>        -0.1852
     33 S2          9.1657    0.1416    3.2565 S.3       1 <0>         0.0977
     34 H3          6.0892   -0.3925    5.1537 H         1 <0>         0.0532
     35 H4          4.3376   -0.2976    5.4557 H         1 <0>         0.0608
     36 H5          4.9393   -0.8095    3.8606 H         1 <0>         0.0461
     37 H6          4.1522    1.5412    3.8025 H         1 <0>         0.0860
     38 H7          5.3744    3.2605    5.1058 H         1 <0>         0.0979
     39 H8          4.5917    2.0792    6.1828 H         1 <0>         0.0520
     40 H9          6.3433    1.9843    5.8808 H         1 <0>         0.0435
     41 H10         0.0401   -0.0884   -0.1641 H         1 <0>         0.1405
     42 H11        -2.1496    1.0366   -0.1939 H         1 <0>         0.1402
     43 H12        -0.2027    4.8258    0.0799 H         1 <0>         0.1421
     44 H13         1.9855    3.6977    0.1012 H         1 <0>         0.1370
     45 H14         3.2295    3.3339   -1.0799 H         1 <0>         0.4008
     46 H15         4.1289    2.0330   -3.6604 H         1 <0>         0.1361
     47 H16         5.4549    4.4105   -2.1028 H         1 <0>         0.1031
     48 H17         5.9777    3.7678   -3.7505 H         1 <0>         0.1005
     49 H18         3.6841    4.3085   -4.6892 H         1 <0>         0.1011
     50 H19         3.1613    4.9512   -3.0415 H         1 <0>         0.0958
     51 H20         8.4909   -2.6443    1.2096 H         1 <0>         0.1432
     52 H21        10.6847   -2.8901    2.3269 H         1 <0>         0.1369
     53 H22        11.4242   -0.9795    3.9034 H         1 <0>         0.1873
     54 O3          7.1050    3.3491    1.8186 O.co2     1 <0>        -0.7328
@<TRIPOS>BOND
     1    1    2 1
     2    1   34 1
     3    1   35 1
     4    1   36 1
     5    2    3 1
     6    2    4 1
     7    2   37 1
     8    3   38 1
     9    3   39 1
    10    3   40 1
    11    4    5 1
    12    4    6 1
    13    4    8 1
    14    6    7 2
    15    6   54 1
    16    8   12 1
    17    8    9 1
    18    9   10 2
    19    9   29 1
    20   10   11 1
    21   11   12 2
    22   12   13 1
    23   13   14 1
    24   14   15 1
    25   14   16 1
    26   14   23 1
    27   16   21 ar
    28   16   17 ar
    29   17   18 ar
    30   17   41 1
    31   18   19 ar
    32   18   42 1
    33   19   20 ar
    34   19   22 1
    35   20   21 ar
    36   20   43 1
    37   21   44 1
    38   23   24 2
    39   23   25 am
    40   25   26 1
    41   25   45 1
    42   26   28 1
    43   26   27 1
    44   26   46 1
    45   27   28 1
    46   27   47 1
    47   27   48 1
    48   28   49 1
    49   28   50 1
    50   29   33 1
    51   29   30 2
    52   30   31 1
    53   30   51 1
    54   31   32 2
    55   31   52 1
    56   32   33 1
    57   32   53 1
