@<TRIPOS>MOLECULE
ZINC20438811
   68    71     0     0     0
SMALL
USER_CHARGES
N-[(Z)-1-[2-(3,4-dimethoxyphenyl)ethylcarbamoyl]-2-(1-ethylindol-3-yl)vinyl]-2-fluoro-benzamide
@<TRIPOS>ATOM
      1 C1         -3.2417   -0.7616    0.5248 C.3       1 <0>        -0.1726
      2 C2         -3.2444   -0.0119   -0.8090 C.3       1 <0>         0.0972
      3 N1         -2.7424    1.3492   -0.6052 N.pl3     1 <0>        -0.4704
      4 C3         -3.5234    2.4389   -0.3835 C.2       1 <0>         0.0893
      5 C4         -2.7369    3.5439   -0.2256 C.2       1 <0>        -0.1658
      6 C5         -1.3420    3.0892   -0.3766 C.ar      1 <0>        -0.0853
      7 C6         -1.4098    1.7061   -0.6107 C.ar      1 <0>         0.0929
      8 C7         -0.2332    0.9862   -0.7896 C.ar      1 <0>        -0.1237
      9 C8          0.9825    1.6337   -0.7459 C.ar      1 <0>        -0.0995
     10 C9          1.0474    3.0008   -0.5197 C.ar      1 <0>        -0.1382
     11 C10        -0.1068    3.7306   -0.3354 C.ar      1 <0>        -0.0748
     12 C11        -3.1901    4.9137    0.0284 C.2       1 <0>        -0.0146
     13 C12        -4.4610    5.1414    0.4479 C.2       1 <0>         0.0504
     14 C13        -4.9423    6.5140    0.6134 C.2       1 <0>         0.5564
     15 O1         -6.0820    6.7182    0.9896 O.2       1 <0>        -0.5264
     16 N2         -4.1236    7.5516    0.3494 N.am      1 <0>        -0.7382
     17 C14        -4.6053    8.9252    0.5151 C.3       1 <0>         0.1298
     18 C15        -3.4874    9.9049    0.1523 C.3       1 <0>        -0.0871
     19 C16        -3.9829   11.3179    0.3227 C.ar      1 <0>        -0.0804
     20 C17        -4.5792   11.9725   -0.7390 C.ar      1 <0>        -0.1082
     21 C18        -5.0404   13.2667   -0.5861 C.ar      1 <0>        -0.1701
     22 C19        -4.8954   13.9147    0.6301 C.ar      1 <0>         0.0988
     23 C20        -4.2901   13.2578    1.6971 C.ar      1 <0>         0.1010
     24 C21        -3.8351   11.9586    1.5388 C.ar      1 <0>        -0.1657
     25 O2         -4.1459   13.8893    2.8929 O.3       1 <0>        -0.3061
     26 C22        -3.5157   13.1535    3.9434 C.3       1 <0>         0.0225
     27 O3         -5.3439   15.1896    0.7808 O.3       1 <0>        -0.3067
     28 C23        -5.9547   15.8012   -0.3572 C.3       1 <0>         0.0223
     29 N3         -5.3128    4.0617    0.7226 N.am      1 <0>        -0.6736
     30 C24        -6.4788    3.9373    0.0582 C.2       1 <0>         0.5609
     31 O4         -6.7526    4.7105   -0.8395 O.2       1 <0>        -0.4935
     32 C25        -7.4238    2.8620    0.4204 C.ar      1 <0>        -0.1730
     33 C26        -7.1629    2.0385    1.5179 C.ar      1 <0>        -0.0617
     34 C27        -8.0519    1.0398    1.8538 C.ar      1 <0>        -0.1371
     35 C28        -9.1968    0.8436    1.1003 C.ar      1 <0>        -0.0619
     36 C29        -9.4613    1.6499    0.0094 C.ar      1 <0>        -0.1628
     37 C30        -8.5817    2.6594   -0.3371 C.ar      1 <0>         0.1618
     38 F1         -8.8399    3.4468   -1.4041 F         1 <0>        -0.1127
     39 H1         -3.6186   -1.7836    0.3717 H         1 <0>         0.0782
     40 H2         -3.8888   -0.2357    1.2423 H         1 <0>         0.0639
     41 H3         -2.2157   -0.8044    0.9193 H         1 <0>         0.0647
     42 H4         -2.5973   -0.5378   -1.5265 H         1 <0>         0.0910
     43 H5         -4.2703    0.0309   -1.2035 H         1 <0>         0.0934
     44 H6         -4.6021    2.4309   -0.3318 H         1 <0>         0.1733
     45 H7         -0.2725   -0.0784   -0.9671 H         1 <0>         0.1191
     46 H8          1.8934    1.0715   -0.8894 H         1 <0>         0.1265
     47 H9          2.0069    3.4955   -0.4883 H         1 <0>         0.1252
     48 H10        -0.0537    4.7950   -0.1602 H         1 <0>         0.1238
     49 H11        -2.5006    5.7577   -0.1208 H         1 <0>         0.1405
     50 H12        -3.0938    7.3671    0.0095 H         1 <0>         0.4160
     51 H13        -5.4687    9.0931   -0.1454 H         1 <0>         0.0699
     52 H14        -4.9072    9.0843    1.5608 H         1 <0>         0.0677
     53 H15        -2.6240    9.7369    0.8128 H         1 <0>         0.0802
     54 H16        -3.1855    9.7458   -0.8934 H         1 <0>         0.0830
     55 H17        -4.6888   11.4701   -1.6887 H         1 <0>         0.1283
     56 H18        -5.5098   13.7743   -1.4158 H         1 <0>         0.1364
     57 H19        -3.3647   11.4467    2.3652 H         1 <0>         0.1356
     58 H20        -3.4637   13.7773    4.8479 H         1 <0>         0.1027
     59 H21        -2.4987   12.8707    3.6340 H         1 <0>         0.0557
     60 H22        -4.0997   12.2461    4.1569 H         1 <0>         0.0559
     61 H23        -6.2695   16.8232   -0.0994 H         1 <0>         0.1027
     62 H24        -6.8327   15.2131   -0.6624 H         1 <0>         0.0563
     63 H25        -5.2320   15.8381   -1.1857 H         1 <0>         0.0560
     64 H26        -5.0293    3.3164    1.4803 H         1 <0>         0.4253
     65 H27        -6.2682    2.1862    2.1045 H         1 <0>         0.1335
     66 H28        -7.8522    0.4053    2.7047 H         1 <0>         0.1377
     67 H29        -9.8866    0.0563    1.3663 H         1 <0>         0.1398
     68 H30       -10.3564    1.4911   -0.5738 H         1 <0>         0.1445
@<TRIPOS>BOND
     1    1    2 1
     2    1   39 1
     3    1   40 1
     4    1   41 1
     5    2    3 1
     6    2   42 1
     7    2   43 1
     8    3    7 1
     9    3    4 1
    10    4    5 2
    11    4   44 1
    12    5    6 1
    13    5   12 1
    14    6   11 ar
    15    6    7 ar
    16    7    8 ar
    17    8    9 ar
    18    8   45 1
    19    9   10 ar
    20    9   46 1
    21   10   11 ar
    22   10   47 1
    23   11   48 1
    24   12   13 2
    25   12   49 1
    26   13   14 1
    27   13   29 1
    28   14   15 2
    29   14   16 am
    30   16   17 1
    31   16   50 1
    32   17   18 1
    33   17   51 1
    34   17   52 1
    35   18   19 1
    36   18   53 1
    37   18   54 1
    38   19   24 ar
    39   19   20 ar
    40   20   21 ar
    41   20   55 1
    42   21   22 ar
    43   21   56 1
    44   22   23 ar
    45   22   27 1
    46   23   24 ar
    47   23   25 1
    48   24   57 1
    49   25   26 1
    50   26   58 1
    51   26   59 1
    52   26   60 1
    53   27   28 1
    54   28   61 1
    55   28   62 1
    56   28   63 1
    57   29   30 am
    58   29   64 1
    59   30   31 2
    60   30   32 1
    61   32   37 ar
    62   32   33 ar
    63   33   34 ar
    64   33   65 1
    65   34   35 ar
    66   34   66 1
    67   35   36 ar
    68   35   67 1
    69   36   37 ar
    70   36   68 1
    71   37   38 1
