@<TRIPOS>MOLECULE
ZINC11994908
   32    33     0     0     0
SMALL
USER_CHARGES
(Z)-3-[2-[(2,3,6-trichlorophenyl)methoxy]phenyl]prop-2-enoic acid
@<TRIPOS>ATOM
      1 C1         -0.1927    5.3292   -0.1429 C.ar      1 <0>        -0.1709
      2 C2         -1.4164    5.9588    0.0200 C.ar      1 <0>        -0.0859
      3 C3         -2.5673    5.2161    0.1983 C.ar      1 <0>        -0.2253
      4 C4         -2.5056    3.8315    0.2159 C.ar      1 <0>         0.1256
      5 C5         -1.2681    3.1886    0.0518 C.ar      1 <0>        -0.0497
      6 C6         -0.1098    3.9544   -0.1225 C.ar      1 <0>         0.0167
      7 C7         -1.1890    1.7219    0.0690 C.2       1 <0>        -0.0930
      8 C8         -0.4522    1.0741   -0.8600 C.2       1 <0>        -0.1688
      9 C9          0.0581    1.7801   -1.9784 C.2       1 <0>         0.4674
     10 O1         -0.2684    2.9364   -2.1684 O.co2     1 <0>        -0.6191
     11 O2         -3.6355    3.1009    0.3905 O.3       1 <0>        -0.2965
     12 C10        -4.8574    3.8242    0.5509 C.3       1 <0>         0.0947
     13 C11        -5.9959    2.8534    0.7312 C.ar      1 <0>        -0.0624
     14 C12        -6.6911    2.3898   -0.3716 C.ar      1 <0>        -0.0025
     15 C13        -7.7328    1.4946   -0.2066 C.ar      1 <0>        -0.0971
     16 C14        -8.0864    1.0708    1.0607 C.ar      1 <0>        -0.0800
     17 C15        -7.3959    1.5379    2.1642 C.ar      1 <0>        -0.0340
     18 C16        -6.3496    2.4301    1.9993 C.ar      1 <0>        -0.0012
     19 Cl1        -5.4827    3.0174    3.3840 Cl        1 <0>        -0.0257
     20 Cl2        -7.8402    1.0056    3.7557 Cl        1 <0>        -0.0402
     21 Cl3        -6.2523    2.9270   -1.9630 Cl        1 <0>        -0.0297
     22 H1          0.7010    5.9195   -0.2819 H         1 <0>         0.1139
     23 H2         -1.4707    7.0373    0.0072 H         1 <0>         0.1126
     24 H3         -3.5168    5.7150    0.3244 H         1 <0>         0.1150
     25 H4          0.8468    3.4683   -0.2450 H         1 <0>         0.1193
     26 H5         -1.7197    1.1613    0.8243 H         1 <0>         0.1123
     27 H6         -0.2557    0.0175   -0.7529 H         1 <0>         0.1065
     28 H7         -4.7863    4.4677    1.4278 H         1 <0>         0.0791
     29 H8         -5.0372    4.4346   -0.3341 H         1 <0>         0.0812
     30 H9         -8.2728    1.1300   -1.0680 H         1 <0>         0.1531
     31 H10        -8.9024    0.3750    1.1892 H         1 <0>         0.1541
     32 O3          0.9060    1.1695   -2.8322 O.co2     1 <0>        -0.7691
@<TRIPOS>BOND
     1    1    6 ar
     2    1    2 ar
     3    1   22 1
     4    2    3 ar
     5    2   23 1
     6    3    4 ar
     7    3   24 1
     8    4    5 ar
     9    4   11 1
    10    5    6 ar
    11    5    7 1
    12    6   25 1
    13    7    8 2
    14    7   26 1
    15    8    9 1
    16    8   27 1
    17    9   10 2
    18    9   32 1
    19   11   12 1
    20   12   13 1
    21   12   28 1
    22   12   29 1
    23   13   18 ar
    24   13   14 ar
    25   14   15 ar
    26   14   21 1
    27   15   16 ar
    28   15   30 1
    29   16   17 ar
    30   16   31 1
    31   17   18 ar
    32   17   20 1
    33   18   19 1
