@<TRIPOS>MOLECULE
ZINC40475845
   40    42     0     0     0
SMALL
USER_CHARGES

@<TRIPOS>ATOM
      1 C1         -3.9085    0.7658   -2.7245 C.3       1 <0>         0.0263
      2 O1         -3.7855   -0.6323   -2.9929 O.3       1 <0>        -0.3086
      3 C2         -2.5417   -1.0976   -3.2861 C.ar      1 <0>         0.1000
      4 C3         -1.4628   -0.2285   -3.3090 C.ar      1 <0>        -0.1689
      5 C4         -0.1990   -0.7032   -3.6067 C.ar      1 <0>        -0.0932
      6 C5         -0.0083   -2.0444   -3.8825 C.ar      1 <0>        -0.0799
      7 C6         -1.0805   -2.9168   -3.8617 C.ar      1 <0>        -0.1587
      8 C7         -2.3488   -2.4486   -3.5580 C.ar      1 <0>         0.0948
      9 O2         -3.4037   -3.3066   -3.5313 O.3       1 <0>        -0.3082
     10 C8         -3.1310   -4.6792   -3.8205 C.3       1 <0>         0.0263
     11 C9          1.3714   -2.5565   -4.2069 C.3       1 <0>         0.0719
     12 H1          1.3842   -3.6407   -4.0950 H         1 <0>         0.0976
     13 C10         2.3478   -1.9581   -3.2573 C.2       1 <0>        -0.2906
     14 C11         3.6117   -1.5030   -3.4920 C.2       1 <0>         0.1497
     15 N1          4.2458   -1.0253   -2.4216 N.2       1 <0>        -0.5608
     16 C12         3.6790   -0.9955   -1.2349 C.2       1 <0>         0.2841
     17 S1          4.3499   -0.4052    0.2837 S.3       1 <0>        -0.7410
     18 S2          2.1563   -1.6569   -1.5184 S.3       1 <0>         0.0439
     19 S3          4.3051   -1.5656   -5.1293 S.3       1 <0>        -0.0644
     20 C13         3.1321   -2.6588   -5.9907 C.3       1 <0>        -0.1052
     21 C14         1.7089   -2.1999   -5.6534 C.3       1 <0>        -0.0691
     22 H2          1.0031   -2.6936   -6.3214 H         1 <0>         0.1170
     23 C15         1.6068   -0.7077   -5.8371 C.2       1 <0>         0.4502
     24 O3          2.1957    0.0350   -5.0878 O.2       1 <0>        -0.4502
     25 O4          0.8615   -0.2035   -6.8331 O.3       1 <0>        -0.3569
     26 C16         0.8098    1.2199   -6.9483 C.3       1 <0>         0.0358
     27 H3         -3.2885    1.0271   -1.8670 H         1 <0>         0.0558
     28 H4         -3.5814    1.3332   -3.5958 H         1 <0>         0.0529
     29 H5         -4.9496    1.0036   -2.5060 H         1 <0>         0.0979
     30 H6         -1.6092    0.8199   -3.0947 H         1 <0>         0.1331
     31 H7          0.6411   -0.0247   -3.6243 H         1 <0>         0.1380
     32 H8         -0.9289   -3.9640   -4.0779 H         1 <0>         0.1356
     33 H9         -4.0562   -5.2528   -3.7654 H         1 <0>         0.0972
     34 H10        -2.7109   -4.7628   -4.8228 H         1 <0>         0.0535
     35 H11        -2.4180   -5.0689   -3.0940 H         1 <0>         0.0549
     36 H12         3.2932   -2.5951   -7.0668 H         1 <0>         0.1186
     37 H13         3.2760   -3.6867   -5.6577 H         1 <0>         0.1084
     38 H14         0.3993    1.6439   -6.0319 H         1 <0>         0.0570
     39 H15         1.8155    1.6081   -7.1096 H         1 <0>         0.0596
     40 H16         0.1752    1.4934   -7.7913 H         1 <0>         0.0956
@<TRIPOS>BOND
     1    1    2 1
     2    1   27 1
     3    1   28 1
     4    1   29 1
     5    2    3 1
     6    3    8 ar
     7    3    4 ar
     8    4    5 ar
     9    4   30 1
    10    5    6 ar
    11    5   31 1
    12    6    7 ar
    13    6   11 1
    14    7    8 ar
    15    7   32 1
    16    8    9 1
    17    9   10 1
    18   10   33 1
    19   10   34 1
    20   10   35 1
    21   11   12 1
    22   11   21 1
    23   11   13 1
    24   13   18 1
    25   13   14 2
    26   14   15 1
    27   14   19 1
    28   15   16 2
    29   16   17 1
    30   16   18 1
    31   19   20 1
    32   20   21 1
    33   20   36 1
    34   20   37 1
    35   21   22 1
    36   21   23 1
    37   23   24 2
    38   23   25 1
    39   25   26 1
    40   26   38 1
    41   26   39 1
    42   26   40 1
