@<TRIPOS>MOLECULE
ZINC63350098
   82    87     0     0     0
SMALL
USER_CHARGES

@<TRIPOS>ATOM
      1 C1         -0.0186    1.5216    0.0104 C.3       1 <0>        -0.1366
      2 C2          0.0021   -0.0041    0.0020 C.3       1 <0>        -0.0543
      3 C3         -1.4115   -0.5347   -0.0552 C.3       1 <0>        -0.1067
      4 C4         -2.1306   -0.1342    1.2499 C.3       1 <0>        -0.1076
      5 C5         -1.4054   -0.6830    2.4621 C.3       1 <0>        -0.0632
      6 H1         -1.4111   -1.7876    2.3225 H         1 <0>         0.0635
      7 C6          0.0693   -0.3049    2.5266 C.3       1 <0>        -0.0571
      8 H2          0.5211   -1.0064    3.2803 H         1 <0>         0.0630
      9 C7          0.7262   -0.6261    1.2113 C.3       1 <0>        -0.0767
     10 H3          0.7262   -1.7365    1.0862 H         1 <0>         0.0718
     11 C8          2.1669   -0.1489    0.9895 C.3       1 <0>        -0.1142
     12 C9          2.3514   -0.3647   -0.5405 C.3       1 <0>        -0.1393
     13 C10         0.9269   -0.4404   -1.1483 C.3       1 <0>         0.0874
     14 H4          0.6884   -1.4542   -1.4513 H         1 <0>         0.0889
     15 O1          0.8008    0.4687   -2.2403 O.3       1 <0>        -0.3323
     16 C11         1.0007   -0.0266   -3.4718 C.2       1 <0>         0.4594
     17 O2          1.2738   -1.1947   -3.6161 O.2       1 <0>        -0.5089
     18 C12         0.8843    0.8742   -4.6743 C.3       1 <0>        -0.1008
     19 C13         1.1572    0.0666   -5.9448 C.3       1 <0>        -0.1307
     20 C14         1.0409    0.9674   -7.1473 C.2       1 <0>         0.5216
     21 O3          0.7667    2.1399   -7.0024 O.2       1 <0>        -0.5287
     22 N1          1.2416    0.4701   -8.3838 N.am      1 <0>        -0.7364
     23 C15         1.1285    1.3458   -9.5528 C.3       1 <0>         0.1253
     24 C16         1.4014    0.5382  -10.8233 C.3       1 <0>        -0.1055
     25 C17         1.2851    1.4391  -12.0258 C.2       1 <0>         0.0702
     26 C18         2.2913    2.0839  -12.6592 C.ar      1 <0>        -0.1669
     27 C19         3.7395    2.1385  -12.4263 C.ar      1 <0>        -0.0129
     28 C20         4.5081    2.8897  -13.2474 C.ar      1 <0>        -0.1500
     29 C21         3.9575    3.6159  -14.3123 C.ar      1 <0>         0.0550
     30 C22         2.6364    3.6156  -14.5894 C.ar      1 <0>        -0.2098
     31 C23         1.7347    2.8595  -13.7906 C.ar      1 <0>         0.3279
     32 N2          0.4350    2.7003  -13.8543 N.pl3     1 <0>        -0.5848
     33 C24         0.0205    1.7998  -12.7727 C.3       1 <0>         0.0604
     34 C25         0.3809    1.0842    3.0360 C.3       1 <0>        -0.1096
     35 C26        -0.8462    1.7712    3.6347 C.3       1 <0>        -0.0921
     36 C27        -1.5456    0.7383    4.4859 C.2       1 <0>        -0.0186
     37 C28        -1.6316    0.8709    5.8015 C.2       1 <0>        -0.2393
     38 C29        -2.2687   -0.1587    6.6198 C.2       1 <0>         0.3874
     39 O4         -2.4528    0.0421    7.8040 O.2       1 <0>        -0.4638
     40 C30        -2.6817   -1.4726    6.0099 C.3       1 <0>        -0.1681
     41 C31        -1.9672   -1.6884    4.6767 C.3       1 <0>        -0.1056
     42 C32        -2.1342   -0.4579    3.7776 C.3       1 <0>        -0.0276
     43 C33        -3.6254   -0.2079    3.5459 C.3       1 <0>        -0.1413
     44 H5          1.0040    1.8989    0.0027 H         1 <0>         0.0575
     45 H6         -0.5458    1.8827   -0.8727 H         1 <0>         0.0610
     46 H7         -0.5288    1.8731    0.9072 H         1 <0>         0.0639
     47 H8         -1.9379   -0.1028   -0.9079 H         1 <0>         0.0659
     48 H9         -1.3994   -1.6216   -0.1463 H         1 <0>         0.0630
     49 H10        -2.2296    0.9424    1.3126 H         1 <0>         0.0700
     50 H11        -3.1338   -0.5768    1.1792 H         1 <0>         0.0653
     51 H12         2.2975    0.8931    1.2592 H         1 <0>         0.0776
     52 H13         2.8652   -0.7783    1.5464 H         1 <0>         0.0694
     53 H14         2.9025    0.4683   -0.9727 H         1 <0>         0.0750
     54 H15         2.8816   -1.3008   -0.7198 H         1 <0>         0.0727
     55 H16        -0.1211    1.2928   -4.7188 H         1 <0>         0.1145
     56 H17         1.6112    1.6825   -4.5944 H         1 <0>         0.1146
     57 H18         2.1627   -0.3520   -5.9003 H         1 <0>         0.1085
     58 H19         0.4304   -0.7417   -6.0247 H         1 <0>         0.1085
     59 H20         1.4609   -0.4676   -8.4997 H         1 <0>         0.4086
     60 H21         0.1231    1.7644   -9.5973 H         1 <0>         0.0786
     61 H22         1.8554    2.1542   -9.4729 H         1 <0>         0.0795
     62 H23         2.4068    0.1197  -10.7788 H         1 <0>         0.1166
     63 H24         0.6745   -0.2701  -10.9032 H         1 <0>         0.1196
     64 H25         4.1846    1.5873  -11.6111 H         1 <0>         0.1607
     65 H26         5.5739    2.9313  -13.0778 H         1 <0>         0.1583
     66 H27         4.6174    4.2001  -14.9366 H         1 <0>         0.1614
     67 H28         2.2621    4.1928  -15.4219 H         1 <0>         0.1609
     68 H29        -0.4416    0.9025  -13.1844 H         1 <0>         0.1754
     69 H30        -0.6759    2.3105  -12.1077 H         1 <0>         0.1745
     70 H31         1.1128    0.9789    3.8588 H         1 <0>         0.0565
     71 H32         0.8417    1.7160    2.2993 H         1 <0>         0.0800
     72 H33        -0.5318    2.6075    4.2516 H         1 <0>         0.0779
     73 H34        -1.5040    2.1076    2.8406 H         1 <0>         0.0845
     74 H35        -1.2270    1.7521    6.2776 H         1 <0>         0.1312
     75 H36        -2.4021   -2.2820    6.6968 H         1 <0>         0.0959
     76 H37        -3.7616   -1.5007    5.8783 H         1 <0>         0.1039
     77 H38        -0.9037   -1.8599    4.8541 H         1 <0>         0.0711
     78 H39        -2.3889   -2.5600    4.1720 H         1 <0>         0.0790
     79 H40        -4.0654   -1.0716    3.0472 H         1 <0>         0.0662
     80 H41        -4.1206   -0.0504    4.5040 H         1 <0>         0.0593
     81 H42        -3.7528    0.6762    2.9213 H         1 <0>         0.0640
     82 H43        -0.1536    3.1067  -14.5095 H         1 <0>         0.4563
@<TRIPOS>BOND
     1    1    2 1
     2    1   44 1
     3    1   45 1
     4    1   46 1
     5    2    9 1
     6    2   13 1
     7    2    3 1
     8    3    4 1
     9    3   47 1
    10    3   48 1
    11    4    5 1
    12    4   49 1
    13    4   50 1
    14    5    6 1
    15    5   42 1
    16    5    7 1
    17    7    8 1
    18    7    9 1
    19    7   34 1
    20    9   10 1
    21    9   11 1
    22   11   12 1
    23   11   51 1
    24   11   52 1
    25   12   13 1
    26   12   53 1
    27   12   54 1
    28   13   14 1
    29   13   15 1
    30   15   16 1
    31   16   17 2
    32   16   18 1
    33   18   19 1
    34   18   55 1
    35   18   56 1
    36   19   20 1
    37   19   57 1
    38   19   58 1
    39   20   21 2
    40   20   22 am
    41   22   23 1
    42   22   59 1
    43   23   24 1
    44   23   60 1
    45   23   61 1
    46   24   25 1
    47   24   62 1
    48   24   63 1
    49   25   33 1
    50   25   26 2
    51   26   31 ar
    52   26   27 ar
    53   27   28 ar
    54   27   64 1
    55   28   29 ar
    56   28   65 1
    57   29   30 ar
    58   29   66 1
    59   30   31 ar
    60   30   67 1
    61   31   32 2
    62   32   33 1
    63   32   82 1
    64   33   68 1
    65   33   69 1
    66   34   35 1
    67   34   70 1
    68   34   71 1
    69   35   36 1
    70   35   72 1
    71   35   73 1
    72   36   42 1
    73   36   37 2
    74   37   38 1
    75   37   74 1
    76   38   39 2
    77   38   40 1
    78   40   41 1
    79   40   75 1
    80   40   76 1
    81   41   42 1
    82   41   77 1
    83   41   78 1
    84   42   43 1
    85   43   79 1
    86   43   80 1
    87   43   81 1
