@<TRIPOS>MOLECULE
ZINC12411509
   71    73     0     0     0
SMALL
USER_CHARGES
(3R)-1-[2-[(E)-[[2-(dimethylsulfamoyl)-4-nitro-phenyl]hydrazono]methyl]phenyl]-N,N-diethyl-piperidine-3-carboxamide
@<TRIPOS>ATOM
      1 C1          4.0411    0.6710   -3.6014 C.3       1 <0>        -0.1748
      2 C2          3.7567    2.0883   -3.1002 C.3       1 <0>         0.0977
      3 N1          5.0042    2.7027   -2.6391 N.am      1 <0>        -0.6104
      4 C3          5.8926    3.3648   -3.5976 C.3       1 <0>         0.1119
      5 C4          5.5863    4.8636   -3.6256 C.3       1 <0>        -0.1680
      6 C5          5.3346    2.6587   -1.3332 C.2       1 <0>         0.5220
      7 O1          6.3234    3.2393   -0.9380 O.2       1 <0>        -0.5331
      8 C6          4.4754    1.8883   -0.3641 C.3       1 <0>        -0.1122
      9 H1          4.0177    1.0421   -0.8767 H         1 <0>         0.1019
     10 C7          3.3800    2.8046    0.1882 C.3       1 <0>        -0.1156
     11 C8          2.5492    2.0316    1.2162 C.3       1 <0>        -0.1283
     12 C9          3.4691    1.5190    2.3267 C.3       1 <0>         0.0616
     13 N2          4.4988    0.6469    1.7475 N.pl3     1 <0>        -0.4863
     14 C10         5.3394    1.3798    0.7921 C.3       1 <0>         0.0811
     15 C11         5.2739    0.0577    2.7456 C.ar      1 <0>         0.1275
     16 C12         6.0788    0.8431    3.5575 C.ar      1 <0>        -0.1503
     17 C13         6.8422    0.2581    4.5497 C.ar      1 <0>        -0.0885
     18 C14         6.8187   -1.1139    4.7347 C.ar      1 <0>        -0.1220
     19 C15         6.0286   -1.9110    3.9330 C.ar      1 <0>        -0.0816
     20 C16         5.2477   -1.3331    2.9298 C.ar      1 <0>        -0.0398
     21 C17         4.4017   -2.1788    2.0694 C.2       1 <0>         0.1174
     22 N3          3.6380   -1.6332    1.1720 N.2       1 <0>        -0.1890
     23 N4          2.7285   -2.4203    0.4537 N.pl3     1 <0>        -0.5791
     24 C18         1.9291   -1.8396   -0.5310 C.ar      1 <0>         0.3697
     25 C19         2.0517   -0.4850   -0.8188 C.ar      1 <0>        -0.1925
     26 C20         1.2588    0.0862   -1.7940 C.ar      1 <0>         0.0190
     27 C21         0.3433   -0.6875   -2.4844 C.ar      1 <0>        -0.1095
     28 C22         0.2184   -2.0352   -2.2009 C.ar      1 <0>         0.0906
     29 C23         1.0121   -2.6149   -1.2307 C.ar      1 <0>        -0.7543
     30 S1          0.8577   -4.3338   -0.8758 S.o2      1 <0>         2.6920
     31 O2          0.8877   -4.4606    0.5392 O.2       1 <0>        -0.9498
     32 O3         -0.2245   -4.8150   -1.6609 O.2       1 <0>        -0.9350
     33 N5          2.2234   -5.0763   -1.4466 N.pl3     1 <0>        -1.0053
     34 C24         3.3016   -5.4371   -0.5227 C.3       1 <0>         0.0894
     35 C25         2.3534   -5.3723   -2.8755 C.3       1 <0>         0.0789
     36 N6         -0.5053   -0.0709   -3.5304 N.pl3     1 <0>         0.0365
     37 O4         -0.3327    1.0925   -3.8470 O.2       1 <0>        -0.1619
     38 O5         -1.3756   -0.7272   -4.0737 O.3       1 <0>        -0.1612
     39 H2          4.7520    0.7132   -4.4266 H         1 <0>         0.0643
     40 H3          4.4610    0.0761   -2.7903 H         1 <0>         0.0578
     41 H4          3.1130    0.2138   -3.9445 H         1 <0>         0.0651
     42 H5          3.0459    2.0460   -2.2750 H         1 <0>         0.0780
     43 H6          3.3369    2.6831   -3.9114 H         1 <0>         0.0870
     44 H7          6.9293    3.2114   -3.2980 H         1 <0>         0.0798
     45 H8          5.7350    2.9432   -4.5903 H         1 <0>         0.0786
     46 H9          4.5784    5.0214   -4.0094 H         1 <0>         0.0561
     47 H10         5.6580    5.2680   -2.6159 H         1 <0>         0.0606
     48 H11         6.3042    5.3692   -4.2713 H         1 <0>         0.0665
     49 H12         3.8368    3.6711    0.6664 H         1 <0>         0.0749
     50 H13         2.7359    3.1346   -0.6268 H         1 <0>         0.0724
     51 H14         1.7946    2.6914    1.6444 H         1 <0>         0.0795
     52 H15         2.0613    1.1874    0.7291 H         1 <0>         0.0804
     53 H16         3.9461    2.3645    2.8224 H         1 <0>         0.0424
     54 H17         2.8828    0.9558    3.0528 H         1 <0>         0.0793
     55 H18         6.1115    0.7156    0.4038 H         1 <0>         0.0777
     56 H19         5.8076    2.2259    1.2950 H         1 <0>         0.0554
     57 H20         6.1060    1.9135    3.4165 H         1 <0>         0.1259
     58 H21         7.4642    0.8743    5.1819 H         1 <0>         0.1270
     59 H22         7.4221   -1.5621    5.5102 H         1 <0>         0.1309
     60 H23         6.0141   -2.9808    4.0807 H         1 <0>         0.1337
     61 H24         4.4168   -3.2525    2.1852 H         1 <0>         0.1216
     62 H25         2.6546   -3.3692    0.6412 H         1 <0>         0.3892
     63 H26         2.7661    0.1197   -0.2800 H         1 <0>         0.1873
     64 H27         1.3538    1.1384   -2.0184 H         1 <0>         0.1577
     65 H28        -0.4975   -2.6361   -2.7420 H         1 <0>         0.1740
     66 H29         3.0857   -6.4063   -0.0732 H         1 <0>         0.0738
     67 H30         4.2441   -5.4911   -1.0676 H         1 <0>         0.0873
     68 H31         3.3772   -4.6823    0.2600 H         1 <0>         0.0537
     69 H32         2.8220   -4.5275   -3.3804 H         1 <0>         0.0597
     70 H33         2.9695   -6.2617   -3.0077 H         1 <0>         0.0860
     71 H34         1.3656   -5.5479   -3.3015 H         1 <0>         0.0878
@<TRIPOS>BOND
     1    1    2 1
     2    1   39 1
     3    1   40 1
     4    1   41 1
     5    2    3 1
     6    2   42 1
     7    2   43 1
     8    3    4 1
     9    3    6 am
    10    4    5 1
    11    4   44 1
    12    4   45 1
    13    5   46 1
    14    5   47 1
    15    5   48 1
    16    6    7 2
    17    6    8 1
    18    8    9 1
    19    8   14 1
    20    8   10 1
    21   10   11 1
    22   10   49 1
    23   10   50 1
    24   11   12 1
    25   11   51 1
    26   11   52 1
    27   12   13 1
    28   12   53 1
    29   12   54 1
    30   13   14 1
    31   13   15 1
    32   14   55 1
    33   14   56 1
    34   15   20 ar
    35   15   16 ar
    36   16   17 ar
    37   16   57 1
    38   17   18 ar
    39   17   58 1
    40   18   19 ar
    41   18   59 1
    42   19   20 ar
    43   19   60 1
    44   20   21 1
    45   21   22 2
    46   21   61 1
    47   22   23 1
    48   23   24 1
    49   23   62 1
    50   24   29 ar
    51   24   25 ar
    52   25   26 ar
    53   25   63 1
    54   26   27 ar
    55   26   64 1
    56   27   28 ar
    57   27   36 1
    58   28   29 ar
    59   28   65 1
    60   29   30 1
    61   30   31 2
    62   30   32 2
    63   30   33 1
    64   33   34 1
    65   33   35 1
    66   34   66 1
    67   34   67 1
    68   34   68 1
    69   35   69 1
    70   35   70 1
    71   35   71 1
    72   36   37 2
    73   36   38 1
