@<TRIPOS>MOLECULE
ZINC27749978
   33    34     0     0     0
SMALL
USER_CHARGES
(1R)-2,2-dichloro-N-[(1,5-dimethylpyrrol-2-yl)methyl]-1-methyl-cyclopropane-1-carboxamide
@<TRIPOS>ATOM
      1 C1         -0.0127    1.0858    0.0080 C.3       1 <0>        -0.0878
      2 C2         -0.7181    1.5718    1.2479 C.2       1 <0>         0.0265
      3 C3         -0.1368    1.8372    2.4354 C.2       1 <0>        -0.2006
      4 C4         -1.1510    2.2639    3.3154 C.2       1 <0>        -0.1662
      5 C5         -2.3134    2.2430    2.6321 C.2       1 <0>        -0.0160
      6 N1         -2.0531    1.8247    1.3608 N.pl3     1 <0>        -0.4392
      7 C6         -3.0446    1.6689    0.2936 C.3       1 <0>         0.0651
      8 C7         -3.6658    2.6232    3.1775 C.3       1 <0>         0.1964
      9 N2         -3.9461    4.0245    2.8550 N.am      1 <0>        -0.7312
     10 C8         -5.1071    4.5867    3.2456 C.2       1 <0>         0.5438
     11 O1         -5.9198    3.9325    3.8641 O.2       1 <0>        -0.5133
     12 C9         -5.3954    6.0282    2.9139 C.3       1 <0>        -0.1638
     13 C10        -6.5064    6.3114    1.9009 C.3       1 <0>        -0.1295
     14 C11        -6.7305    6.6081    3.3850 C.3       1 <0>         0.0615
     15 Cl1        -7.8385    5.5146    4.2946 Cl        1 <0>        -0.0475
     16 Cl2        -6.7536    8.3375    3.8946 Cl        1 <0>        -0.0790
     17 C12        -4.1820    6.9601    2.9112 C.3       1 <0>        -0.1249
     18 H1          1.0611    0.9721    0.2178 H         1 <0>         0.0835
     19 H2         -0.1526    1.8154   -0.8032 H         1 <0>         0.0666
     20 H3         -0.4318    0.1151   -0.2956 H         1 <0>         0.0668
     21 H4          0.9131    1.7401    2.6691 H         1 <0>         0.1374
     22 H5         -1.0213    2.5546    4.3474 H         1 <0>         0.1373
     23 H6         -4.0390    1.9457    0.6738 H         1 <0>         0.0871
     24 H7         -3.0592    0.6219   -0.0433 H         1 <0>         0.0781
     25 H8         -2.7800    2.3222   -0.5509 H         1 <0>         0.0782
     26 H9         -4.4368    1.9817    2.7259 H         1 <0>         0.0715
     27 H10        -3.6715    2.4900    4.2694 H         1 <0>         0.0907
     28 H11        -3.2090    4.6178    2.2941 H         1 <0>         0.4222
     29 H12        -6.1481    7.0389    1.1576 H         1 <0>         0.1315
     30 H13        -6.7869    5.3766    1.3934 H         1 <0>         0.1239
     31 H14        -4.5043    7.9810    2.6584 H         1 <0>         0.0793
     32 H15        -3.4529    6.6105    2.1654 H         1 <0>         0.0752
     33 H16        -3.7165    6.9588    3.9078 H         1 <0>         0.0766
@<TRIPOS>BOND
     1    1    2 1
     2    1   18 1
     3    1   19 1
     4    1   20 1
     5    2    6 1
     6    2    3 2
     7    3    4 1
     8    3   21 1
     9    4    5 2
    10    4   22 1
    11    5    6 1
    12    5    8 1
    13    6    7 1
    14    7   23 1
    15    7   24 1
    16    7   25 1
    17    8    9 1
    18    8   26 1
    19    8   27 1
    20    9   10 am
    21    9   28 1
    22   10   11 2
    23   10   12 1
    24   12   14 1
    25   12   13 1
    26   12   17 1
    27   13   14 1
    28   13   29 1
    29   13   30 1
    30   14   15 1
    31   14   16 1
    32   17   31 1
    33   17   32 1
    34   17   33 1
