@<TRIPOS>MOLECULE
ZINC22012958
   60    62     0     0     0
SMALL
USER_CHARGES
N-(6-amino-1-butyl-2,4-dioxo-pyrimidin-5-yl)-N-ethyl-2-(5-sulfamoylindolin-1-yl)acetamide
@<TRIPOS>ATOM
      1 C1         -6.0773    7.8330    5.2280 C.3       1 <0>        -0.1556
      2 C2         -4.6002    8.0740    5.5458 C.3       1 <0>        -0.1195
      3 C3         -3.9012    6.7317    5.7704 C.3       1 <0>        -0.1419
      4 C4         -2.4241    6.9727    6.0882 C.3       1 <0>         0.1050
      5 N1         -1.7548    5.6874    6.3033 N.am      1 <0>        -0.5398
      6 C5         -1.1825    5.0283    5.2402 C.2       1 <0>         0.5129
      7 C6         -0.5556    3.8182    5.4562 C.2       1 <0>        -0.1759
      8 C7         -0.5264    3.2916    6.7612 C.2       1 <0>         0.5701
      9 O1          0.0165    2.2218    6.9795 O.2       1 <0>        -0.5298
     10 N2         -1.0974    3.9804    7.7687 N.am      1 <0>        -0.6749
     11 H1         -1.0707    3.5802    8.7930 H         1 <0>         0.4618
     12 C8         -1.7040    5.1585    7.5392 C.2       1 <0>         0.7115
     13 O2         -2.2157    5.7569    8.4660 O.2       1 <0>        -0.5370
     14 N3          0.0409    3.1179    4.3864 N.am      1 <0>        -0.5100
     15 C9          1.4949    2.9436    4.3451 C.3       1 <0>         0.1010
     16 C10         2.1371    4.1689    3.6917 C.3       1 <0>        -0.1714
     17 C11        -0.7279    2.6087    3.4013 C.2       1 <0>         0.4721
     18 O3         -1.9209    2.8290    3.3875 O.2       1 <0>        -0.5089
     19 C12        -0.1047    1.7664    2.3182 C.3       1 <0>         0.0228
     20 N4         -1.1254    1.4172    1.3211 N.pl3     1 <0>        -0.4595
     21 C13        -1.6297    2.6257    0.6332 C.3       1 <0>         0.0432
     22 C14        -3.0921    2.2474    0.3043 C.3       1 <0>        -0.0756
     23 C15        -3.4183    1.2120    1.3621 C.ar      1 <0>        -0.1392
     24 C16        -2.2213    0.7773    1.9194 C.ar      1 <0>         0.1770
     25 C17        -2.2535   -0.1794    2.9322 C.ar      1 <0>        -0.1548
     26 C18        -3.4595   -0.6882    3.3680 C.ar      1 <0>         0.0033
     27 C19        -4.6442   -0.2530    2.8035 C.ar      1 <0>        -0.6851
     28 C20        -4.6207    0.6985    1.7994 C.ar      1 <0>         0.0255
     29 S1         -6.1813   -0.9086    3.3623 S.o2      1 <0>         2.6379
     30 O4         -5.9643   -1.3816    4.6846 O.2       1 <0>        -0.9887
     31 O5         -7.1728    0.0612    3.0533 O.2       1 <0>        -0.9560
     32 N5         -6.5135   -2.2381    2.4326 N.pl3     1 <0>        -1.1635
     33 N6         -1.2341    5.5689    3.9777 N.pl3     1 <0>        -0.8443
     34 H2         -6.5798    8.7981    5.0665 H         1 <0>         0.0590
     35 H3         -6.5526    7.3084    6.0700 H         1 <0>         0.0570
     36 H4         -6.1614    7.2192    4.3190 H         1 <0>         0.0554
     37 H5         -4.1249    8.5986    4.7038 H         1 <0>         0.0645
     38 H6         -4.5161    8.6878    6.4547 H         1 <0>         0.0691
     39 H7         -4.3765    6.2071    6.6123 H         1 <0>         0.0774
     40 H8         -3.9853    6.1179    4.8615 H         1 <0>         0.0702
     41 H9         -1.9488    7.4972    5.2462 H         1 <0>         0.0903
     42 H10        -2.3400    7.5865    6.9971 H         1 <0>         0.1133
     43 H11         1.8798    2.8302    5.3693 H         1 <0>         0.0897
     44 H12         1.7400    2.0451    3.7597 H         1 <0>         0.0840
     45 H13         3.2288    4.0380    3.6607 H         1 <0>         0.0746
     46 H14         1.8920    5.0673    4.2771 H         1 <0>         0.0594
     47 H15         1.7522    4.2823    2.6675 H         1 <0>         0.0536
     48 H16         0.7036    2.3329    1.8326 H         1 <0>         0.1183
     49 H17         0.3063    0.8466    2.7598 H         1 <0>         0.1195
     50 H18        -1.5567    3.4900    1.3097 H         1 <0>         0.0657
     51 H19        -1.0269    2.8133   -0.2676 H         1 <0>         0.0970
     52 H20        -3.7275    3.1424    0.3767 H         1 <0>         0.0852
     53 H21        -3.1452    1.8418   -0.7168 H         1 <0>         0.0908
     54 H22        -1.3316   -0.5233    3.3775 H         1 <0>         0.1262
     55 H23        -3.4783   -1.4293    4.1534 H         1 <0>         0.1406
     56 H24        -5.5454    1.0391    1.3574 H         1 <0>         0.1381
     57 H25        -7.4697   -2.6787    2.7513 H         1 <0>         0.4119
     58 H26        -5.7099   -2.9796    2.5528 H         1 <0>         0.4085
     59 H27        -0.7743    5.0363    3.1321 H         1 <0>         0.4407
     60 H28        -1.7352    6.5341    3.8128 H         1 <0>         0.4272
@<TRIPOS>BOND
     1    1    2 1
     2    1   34 1
     3    1   35 1
     4    1   36 1
     5    2    3 1
     6    2   37 1
     7    2   38 1
     8    3    4 1
     9    3   39 1
    10    3   40 1
    11    4    5 1
    12    4   41 1
    13    4   42 1
    14    5   12 am
    15    5    6 1
    16    6    7 2
    17    6   33 1
    18    7    8 1
    19    7   14 1
    20    8    9 2
    21    8   10 am
    22   10   11 1
    23   10   12 am
    24   12   13 2
    25   14   15 1
    26   14   17 am
    27   15   16 1
    28   15   43 1
    29   15   44 1
    30   16   45 1
    31   16   46 1
    32   16   47 1
    33   17   18 2
    34   17   19 1
    35   19   20 1
    36   19   48 1
    37   19   49 1
    38   20   24 1
    39   20   21 1
    40   21   22 1
    41   21   50 1
    42   21   51 1
    43   22   23 1
    44   22   52 1
    45   22   53 1
    46   23   28 ar
    47   23   24 ar
    48   24   25 ar
    49   25   26 ar
    50   25   54 1
    51   26   27 ar
    52   26   55 1
    53   27   28 ar
    54   27   29 1
    55   28   56 1
    56   29   30 2
    57   29   31 2
    58   29   32 1
    59   32   57 1
    60   32   58 1
    61   33   59 1
    62   33   60 1
