@<TRIPOS>MOLECULE
ZINC20265180
   68    71     0     0     0
SMALL
USER_CHARGES
(5R)-4-(4-allyloxybenzoyl)-5-(2,3-dimethoxyphenyl)-3-hydroxy-1-(2-morpholinoethyl)-5H-pyrrol-2-one
@<TRIPOS>ATOM
      1 C1         -1.5291   -0.9215   -1.1576 C.3       1 <0>         0.0244
      2 O1         -0.1855   -1.4040   -1.0944 O.3       1 <0>        -0.3079
      3 C2          0.7691   -0.5218   -0.6946 C.ar      1 <0>         0.1053
      4 C3          0.4201    0.7794   -0.3705 C.ar      1 <0>        -0.2053
      5 C4          1.3918    1.6751    0.0352 C.ar      1 <0>        -0.0884
      6 C5          2.7128    1.2758    0.1186 C.ar      1 <0>        -0.1250
      7 C6          3.0678   -0.0209   -0.2033 C.ar      1 <0>        -0.0495
      8 C7          2.0987   -0.9237   -0.6106 C.ar      1 <0>         0.0720
      9 O2          2.4463   -2.1996   -0.9281 O.3       1 <0>        -0.3097
     10 C8          2.6804   -2.4837   -2.3089 C.3       1 <0>         0.0333
     11 C9          4.5086   -0.4528   -0.1107 C.3       1 <0>         0.2698
     12 H1          4.6699   -1.2690   -0.8302 H         1 <0>         0.0744
     13 C10         4.8370   -0.8663    1.3049 C.2       1 <0>        -0.4908
     14 C11         5.8180   -0.0396    1.7357 C.2       1 <0>         0.2616
     15 C12         6.1582    0.9131    0.6582 C.2       1 <0>         0.5123
     16 O3          7.0024    1.7832    0.7376 O.2       1 <0>        -0.5334
     17 N1          5.3945    0.6748   -0.4235 N.am      1 <0>        -0.6148
     18 C13         5.4389    1.4108   -1.6894 C.3       1 <0>         0.1413
     19 C14         4.5864    2.6760   -1.5740 C.3       1 <0>         0.0233
     20 N2          4.7163    3.4680   -2.8044 N.3       1 <0>        -0.5317
     21 C15         6.0833    3.9877   -2.9545 C.3       1 <0>         0.0096
     22 C16         6.1897    4.7544   -4.2754 C.3       1 <0>         0.0641
     23 O4          5.2093    5.7954   -4.2969 O.3       1 <0>        -0.3875
     24 C17         3.8665    5.3245   -4.1537 C.3       1 <0>         0.0642
     25 C18         3.7365    4.5636   -2.8316 C.3       1 <0>         0.0174
     26 O5          6.3957   -0.0790    2.9585 O.3       1 <0>        -0.6516
     27 C19         4.2131   -1.9537    2.0655 C.2       1 <0>         0.5099
     28 O6          3.5691   -1.7040    3.0675 O.2       1 <0>        -0.4798
     29 C20         4.3661   -3.3513    1.6157 C.ar      1 <0>        -0.1610
     30 C21         5.0904   -3.6388    0.4548 C.ar      1 <0>        -0.0146
     31 C22         5.2355   -4.9441    0.0420 C.ar      1 <0>        -0.2258
     32 C23         4.6533   -5.9748    0.7715 C.ar      1 <0>         0.1391
     33 C24         3.9274   -5.6927    1.9234 C.ar      1 <0>        -0.1666
     34 C25         3.7823   -4.3908    2.3463 C.ar      1 <0>        -0.0340
     35 O7          4.7944   -7.2596    0.3583 O.3       1 <0>        -0.3131
     36 C26         5.5525   -7.4784   -0.8331 C.3       1 <0>         0.0840
     37 C27         5.6007   -8.9543   -1.1338 C.2       1 <0>        -0.1549
     38 C28         5.3953   -9.3809   -2.3553 C.2       1 <0>        -0.1798
     39 H2         -2.1941   -1.7312   -1.4926 H         1 <0>         0.0977
     40 H3         -1.5847   -0.0836   -1.8681 H         1 <0>         0.0521
     41 H4         -1.8427   -0.5783   -0.1607 H         1 <0>         0.0547
     42 H5         -0.6105    1.0951   -0.4392 H         1 <0>         0.1265
     43 H6          1.1184    2.6890    0.2875 H         1 <0>         0.1226
     44 H7          3.4690    1.9784    0.4360 H         1 <0>         0.1255
     45 H8          2.9514   -3.5435   -2.4243 H         1 <0>         0.0896
     46 H9          3.5020   -1.8527   -2.6789 H         1 <0>         0.0414
     47 H10         1.7680   -2.2735   -2.8863 H         1 <0>         0.0431
     48 H11         6.4789    1.6888   -1.9156 H         1 <0>         0.0769
     49 H12         5.0452    0.7758   -2.4968 H         1 <0>         0.0823
     50 H13         3.5327    2.3961   -1.4277 H         1 <0>         0.0956
     51 H14         4.9298    3.2726   -0.7160 H         1 <0>         0.0428
     52 H15         6.3129    4.6627   -2.1169 H         1 <0>         0.0458
     53 H16         6.7960    3.1498   -2.9561 H         1 <0>         0.0907
     54 H17         7.1947    5.1926   -4.3651 H         1 <0>         0.0977
     55 H18         6.0140    4.0652   -5.1146 H         1 <0>         0.0592
     56 H19         3.1756    6.1805   -4.1558 H         1 <0>         0.0965
     57 H20         3.6219    4.6538   -4.9906 H         1 <0>         0.0590
     58 H21         2.7212    4.1498   -2.7427 H         1 <0>         0.0863
     59 H22         3.9283    5.2480   -1.9920 H         1 <0>         0.0429
     60 H23         5.5391   -2.8385   -0.1148 H         1 <0>         0.1319
     61 H24         5.7985   -5.1674   -0.8521 H         1 <0>         0.1242
     62 H25         3.4771   -6.4962    2.4873 H         1 <0>         0.1276
     63 H26         3.2186   -4.1725    3.2413 H         1 <0>         0.1341
     64 H27         5.0779   -6.9485   -1.6722 H         1 <0>         0.0682
     65 H28         6.5754   -7.0994   -0.6916 H         1 <0>         0.0734
     66 H29         5.8083   -9.6734   -0.3277 H         1 <0>         0.1210
     67 H30         5.4305  -10.4582   -2.5749 H         1 <0>         0.1082
     68 H31         5.1877   -8.6618   -3.1614 H         1 <0>         0.1016
@<TRIPOS>BOND
     1    1    2 1
     2    1   39 1
     3    1   40 1
     4    1   41 1
     5    2    3 1
     6    3    8 ar
     7    3    4 ar
     8    4    5 ar
     9    4   42 1
    10    5    6 ar
    11    5   43 1
    12    6    7 ar
    13    6   44 1
    14    7    8 ar
    15    7   11 1
    16    8    9 1
    17    9   10 1
    18   10   45 1
    19   10   46 1
    20   10   47 1
    21   11   12 1
    22   11   17 1
    23   11   13 1
    24   13   14 2
    25   13   27 1
    26   14   15 1
    27   14   26 1
    28   15   16 2
    29   15   17 am
    30   17   18 1
    31   18   19 1
    32   18   48 1
    33   18   49 1
    34   19   20 1
    35   19   50 1
    36   19   51 1
    37   20   25 1
    38   20   21 1
    39   21   22 1
    40   21   52 1
    41   21   53 1
    42   22   23 1
    43   22   54 1
    44   22   55 1
    45   23   24 1
    46   24   25 1
    47   24   56 1
    48   24   57 1
    49   25   58 1
    50   25   59 1
    51   27   28 2
    52   27   29 1
    53   29   34 ar
    54   29   30 ar
    55   30   31 ar
    56   30   60 1
    57   31   32 ar
    58   31   61 1
    59   32   33 ar
    60   32   35 1
    61   33   34 ar
    62   33   62 1
    63   34   63 1
    64   35   36 1
    65   36   37 1
    66   36   64 1
    67   36   65 1
    68   37   38 2
    69   37   66 1
    70   38   67 1
    71   38   68 1
