@<TRIPOS>MOLECULE
ZINC17296822
   48    51     0     0     0
SMALL
USER_CHARGES
ethyl (2E,5R)-2-[(2-hydroxy-5-nitro-phenyl)methylene]-7-methyl-3-oxo-5-(2-thienyl)-5H-thiazolo[3,2-a]pyrimidine-6-carboxylate
@<TRIPOS>ATOM
      1 C1         -1.0924    3.1474   -1.0968 C.3       1 <0>        -0.1526
      2 C2         -1.7779    3.5159    0.2205 C.3       1 <0>         0.0653
      3 O1         -2.9465    2.7112    0.3907 O.3       1 <0>        -0.3471
      4 C3         -3.6720    2.9129    1.5122 C.2       1 <0>         0.5357
      5 O2         -3.3195    3.7508    2.3231 O.2       1 <0>        -0.5190
      6 C4         -4.8326    2.1566    1.7433 C.2       1 <0>        -0.3046
      7 C5         -5.5151    2.2587    2.9231 C.2       1 <0>         0.2650
      8 N1         -6.6106    1.5399    3.1332 N.2       1 <0>        -0.5363
      9 C6         -7.1283    0.6984    2.2742 C.2       1 <0>         0.4194
     10 N2         -6.6000    0.4461    1.0291 N.am      1 <0>        -0.5774
     11 C7         -7.2185   -0.4382    0.2358 C.2       1 <0>         0.5471
     12 O3         -6.7882   -0.6932   -0.8738 O.2       1 <0>        -0.4474
     13 C8         -8.4324   -1.0908    0.7451 C.2       1 <0>        -0.3067
     14 C9         -9.2333   -2.0111    0.1476 C.2       1 <0>         0.1830
     15 C10        -8.8401   -2.6026   -1.1365 C.ar      1 <0>        -0.2639
     16 C11        -7.5002   -2.9257   -1.3827 C.ar      1 <0>         0.0867
     17 C12        -7.1392   -3.4811   -2.5904 C.ar      1 <0>        -0.1725
     18 C13        -8.0959   -3.7220   -3.5636 C.ar      1 <0>        -0.0036
     19 C14        -9.4219   -3.4080   -3.3349 C.ar      1 <0>        -0.2390
     20 C15        -9.8065   -2.8540   -2.1246 C.ar      1 <0>         0.3345
     21 N3         -5.7224   -3.8219   -2.8502 N.pl3     1 <0>         0.0661
     22 O4         -4.8790   -3.6111   -1.9971 O.2       1 <0>        -0.2126
     23 O5         -5.3999   -4.3132   -3.9171 O.3       1 <0>        -0.2177
     24 S1         -8.5692   -0.3466    2.3628 S.3       1 <0>         0.1181
     25 C16        -5.3665    1.2109    0.6921 C.3       1 <0>         0.2920
     26 H1         -4.5823    0.4902    0.4602 H         1 <0>         0.1084
     27 C17        -5.6376    2.0106   -0.5561 C.2       1 <0>        -0.1557
     28 C18        -4.8788    2.1339   -1.6725 C.2       1 <0>        -0.1125
     29 C19        -5.3339    2.9285   -2.7079 C.2       1 <0>        -0.1533
     30 C20        -6.5205    3.5696   -2.5719 C.2       1 <0>        -0.1714
     31 S2         -7.0377    3.0477   -0.9448 S.3       1 <0>         0.0332
     32 C21        -5.0190    3.1951    3.9945 C.3       1 <0>        -0.0979
     33 H2         -0.8092    2.0950   -1.0771 H         1 <0>         0.0665
     34 H3         -0.2011    3.7612   -1.2266 H         1 <0>         0.0759
     35 H4         -1.7787    3.3236   -1.9252 H         1 <0>         0.0660
     36 H5         -1.0917    3.3397    1.0488 H         1 <0>         0.0642
     37 H6         -2.0611    4.5682    0.2008 H         1 <0>         0.0633
     38 H7        -10.1594   -2.3074    0.6177 H         1 <0>         0.1529
     39 H8         -6.7512   -2.7401   -0.6271 H         1 <0>         0.1298
     40 H9         -7.8030   -4.1578   -4.5073 H         1 <0>         0.1298
     41 H10       -10.1606   -3.5989   -4.0993 H         1 <0>         0.1282
     42 H11        -3.9342    1.6166   -1.7530 H         1 <0>         0.1359
     43 H12        -4.7506    3.0407   -3.6099 H         1 <0>         0.1329
     44 H13        -7.0225    4.2259   -3.2673 H         1 <0>         0.1839
     45 H14        -5.0776    4.2224    3.6349 H         1 <0>         0.0954
     46 H15        -5.6364    3.0865    4.8863 H         1 <0>         0.0746
     47 H16        -3.9842    2.9536    4.2374 H         1 <0>         0.0940
     48 O6        -11.1096   -2.5508   -1.8968 O.3       1 <0>        -0.6569
@<TRIPOS>BOND
     1    1    2 1
     2    1   33 1
     3    1   34 1
     4    1   35 1
     5    2    3 1
     6    2   36 1
     7    2   37 1
     8    3    4 1
     9    4    5 2
    10    4    6 1
    11    6   25 1
    12    6    7 2
    13    7    8 1
    14    7   32 1
    15    8    9 2
    16    9   24 1
    17    9   10 1
    18   10   11 am
    19   10   25 1
    20   11   12 2
    21   11   13 1
    22   13   14 2
    23   13   24 1
    24   14   15 1
    25   14   38 1
    26   15   20 ar
    27   15   16 ar
    28   16   17 ar
    29   16   39 1
    30   17   18 ar
    31   17   21 1
    32   18   19 ar
    33   18   40 1
    34   19   20 ar
    35   19   41 1
    36   20   48 1
    37   21   22 2
    38   21   23 1
    39   25   26 1
    40   25   27 1
    41   27   31 1
    42   27   28 2
    43   28   29 1
    44   28   42 1
    45   29   30 2
    46   29   43 1
    47   30   31 1
    48   30   44 1
    49   32   45 1
    50   32   46 1
    51   32   47 1
