@<TRIPOS>MOLECULE
ZINC36495749
   82    84     0     0     0
SMALL
USER_CHARGES

@<TRIPOS>ATOM
      1 C1         -0.5498    1.2337   -4.2889 C.3       1 <0>        -0.1169
      2 C2          0.0095    0.4927   -3.1018 C.ar      1 <0>        -0.0785
      3 C3          0.6359   -0.7265   -3.2805 C.ar      1 <0>        -0.1152
      4 C4          1.1489   -1.4062   -2.1916 C.ar      1 <0>        -0.1087
      5 C5          1.0360   -0.8664   -0.9240 C.ar      1 <0>        -0.0936
      6 C6          0.4104    0.3533   -0.7454 C.ar      1 <0>        -0.0895
      7 C7         -0.0989    1.0350   -1.8349 C.ar      1 <0>        -0.1167
      8 C8          1.5944   -1.6078    0.2632 C.3       1 <0>         0.1716
      9 H1          1.6220   -2.6753    0.0447 H         1 <0>         0.1078
     10 C9          2.9901   -1.1175    0.5505 C.2       1 <0>         0.5169
     11 O1          3.3756   -1.0225    1.6965 O.2       1 <0>        -0.5134
     12 N1          3.8100   -0.7846   -0.4660 N.am      1 <0>        -0.7249
     13 C10         5.1669   -0.3079   -0.1867 C.3       1 <0>         0.1778
     14 C11         5.1083    0.8239    0.8411 C.3       1 <0>        -0.1705
     15 C12         6.0074   -1.4590    0.3696 C.3       1 <0>        -0.1684
     16 C13         5.8020    0.2091   -1.4791 C.3       1 <0>        -0.1140
     17 C14         5.5597   -0.7983   -2.6049 C.3       1 <0>        -0.0705
     18 C15         4.0755   -0.8009   -2.9764 C.3       1 <0>        -0.1678
     19 C16         6.3910   -0.4059   -3.8280 C.3       1 <0>        -0.1412
     20 C17         5.9705   -2.1956   -2.1360 C.3       1 <0>        -0.1587
     21 N2          0.7432   -1.3704    1.4317 N.am      1 <0>        -0.5966
     22 C18         1.3175   -0.7991    2.6524 C.3       1 <0>         0.1658
     23 C19         1.6787    0.6437    2.4100 C.2       1 <0>        -0.0181
     24 C20         0.8532    1.6961    2.5532 C.2       1 <0>        -0.2083
     25 C21         1.6004    2.8505    2.2247 C.2       1 <0>        -0.2150
     26 C22         2.8379    2.4345    1.9004 C.2       1 <0>        -0.0486
     27 O2          2.8811    1.0975    2.0200 O.3       1 <0>        -0.1306
     28 C23        -0.5682   -1.6776    1.3837 C.2       1 <0>         0.5164
     29 O3         -1.0437   -2.1505    0.3731 O.2       1 <0>        -0.5171
     30 C24        -1.4438   -1.4334    2.5856 C.3       1 <0>        -0.1406
     31 C25        -2.8770   -1.8653    2.2688 C.3       1 <0>        -0.0982
     32 C26        -3.7660   -1.6174    3.4891 C.3       1 <0>        -0.0868
     33 C27        -3.8475   -0.1144    3.7638 C.3       1 <0>        -0.1164
     34 C28        -4.7365    0.1335    4.9841 C.3       1 <0>        -0.1201
     35 C29        -6.1398   -0.4121    4.7121 C.3       1 <0>        -0.1209
     36 C30        -6.0582   -1.9151    4.4375 C.3       1 <0>        -0.1200
     37 C31        -5.1692   -2.1630    3.2172 C.3       1 <0>        -0.1140
     38 H2          0.2168    1.8892   -4.7021 H         1 <0>         0.0706
     39 H3         -0.8641    0.5181   -5.0487 H         1 <0>         0.0674
     40 H4         -1.4066    1.8296   -3.9745 H         1 <0>         0.0662
     41 H5          0.7241   -1.1483   -4.2708 H         1 <0>         0.1235
     42 H6          1.6377   -2.3591   -2.3311 H         1 <0>         0.1198
     43 H7          0.3218    0.7749    0.2449 H         1 <0>         0.1227
     44 H8         -0.5843    1.9897   -1.6958 H         1 <0>         0.1192
     45 H9          3.5017   -0.8605   -1.3826 H         1 <0>         0.4128
     46 H10         4.7565    0.4308    1.7949 H         1 <0>         0.1030
     47 H11         6.1032    1.2506    0.9687 H         1 <0>         0.0533
     48 H12         4.4236    1.5968    0.4918 H         1 <0>         0.0542
     49 H13         5.6826   -2.3969   -0.0810 H         1 <0>         0.0713
     50 H14         7.0580   -1.2880    0.1353 H         1 <0>         0.0622
     51 H15         5.8802   -1.5122    1.4509 H         1 <0>         0.0627
     52 H16         5.3548    1.1666   -1.7459 H         1 <0>         0.0678
     53 H17         6.8742    0.3375   -1.3309 H         1 <0>         0.0802
     54 H18         3.6408    0.1710   -2.7426 H         1 <0>         0.0654
     55 H19         3.9682   -0.9998   -4.0427 H         1 <0>         0.0690
     56 H20         3.5602   -1.5755   -2.4086 H         1 <0>         0.0723
     57 H21         7.4484   -0.4041   -3.5633 H         1 <0>         0.0570
     58 H22         6.2184   -1.1236   -4.6300 H         1 <0>         0.0576
     59 H23         6.0983    0.5895   -4.1620 H         1 <0>         0.0552
     60 H24         5.1194   -2.6846   -1.6620 H         1 <0>         0.0579
     61 H25         6.2972   -2.7849   -2.9928 H         1 <0>         0.0525
     62 H26         6.7875   -2.1128   -1.4193 H         1 <0>         0.0742
     63 H27         0.5882   -0.8603    3.4602 H         1 <0>         0.0998
     64 H28         2.2127   -1.3564    2.9281 H         1 <0>         0.1400
     65 H29        -0.1819    1.6651    2.8597 H         1 <0>         0.1398
     66 H30         1.2457    3.8705    2.2323 H         1 <0>         0.1420
     67 H31         3.6585    3.0686    1.5989 H         1 <0>         0.1934
     68 H32        -1.0691   -2.0100    3.4313 H         1 <0>         0.0952
     69 H33        -1.4309   -0.3724    2.8351 H         1 <0>         0.0946
     70 H34        -3.2517   -1.2886    1.4231 H         1 <0>         0.0698
     71 H35        -2.8900   -2.9263    2.0194 H         1 <0>         0.0706
     72 H36        -3.3414   -2.1227    4.3566 H         1 <0>         0.0707
     73 H37        -2.8478    0.2743    3.9575 H         1 <0>         0.0610
     74 H38        -4.2720    0.3909    2.8963 H         1 <0>         0.0619
     75 H39        -4.3119   -0.3719    5.8516 H         1 <0>         0.0611
     76 H40        -4.7946    1.2042    5.1798 H         1 <0>         0.0601
     77 H41        -6.7731   -0.2355    5.5815 H         1 <0>         0.0597
     78 H42        -6.5643    0.0932    3.8447 H         1 <0>         0.0605
     79 H43        -5.6337   -2.4204    5.3050 H         1 <0>         0.0609
     80 H44        -7.0579   -2.3038    4.2437 H         1 <0>         0.0606
     81 H45        -5.5938   -1.6576    2.3497 H         1 <0>         0.0621
     82 H46        -5.1111   -3.2337    3.0215 H         1 <0>         0.0620
@<TRIPOS>BOND
     1    1    2 1
     2    1   38 1
     3    1   39 1
     4    1   40 1
     5    2    7 ar
     6    2    3 ar
     7    3    4 ar
     8    3   41 1
     9    4    5 ar
    10    4   42 1
    11    5    6 ar
    12    5    8 1
    13    6    7 ar
    14    6   43 1
    15    7   44 1
    16    8    9 1
    17    8   10 1
    18    8   21 1
    19   10   11 2
    20   10   12 am
    21   12   13 1
    22   12   45 1
    23   13   14 1
    24   13   15 1
    25   13   16 1
    26   14   46 1
    27   14   47 1
    28   14   48 1
    29   15   49 1
    30   15   50 1
    31   15   51 1
    32   16   17 1
    33   16   52 1
    34   16   53 1
    35   17   18 1
    36   17   19 1
    37   17   20 1
    38   18   54 1
    39   18   55 1
    40   18   56 1
    41   19   57 1
    42   19   58 1
    43   19   59 1
    44   20   60 1
    45   20   61 1
    46   20   62 1
    47   21   22 1
    48   21   28 am
    49   22   23 1
    50   22   63 1
    51   22   64 1
    52   23   27 1
    53   23   24 2
    54   24   25 1
    55   24   65 1
    56   25   26 2
    57   25   66 1
    58   26   27 1
    59   26   67 1
    60   28   29 2
    61   28   30 1
    62   30   31 1
    63   30   68 1
    64   30   69 1
    65   31   32 1
    66   31   70 1
    67   31   71 1
    68   32   37 1
    69   32   33 1
    70   32   72 1
    71   33   34 1
    72   33   73 1
    73   33   74 1
    74   34   35 1
    75   34   75 1
    76   34   76 1
    77   35   36 1
    78   35   77 1
    79   35   78 1
    80   36   37 1
    81   36   79 1
    82   36   80 1
    83   37   81 1
    84   37   82 1
