@<TRIPOS>MOLECULE
ZINC13415465
   49    51     0     0     0
SMALL
USER_CHARGES
2-[2-[2-[1-[2-(4-chlorophenyl)ethyl]-2,5-dimethyl-pyrrol-3-yl]-2-oxo-ethyl]sulfanylthiazol-4-yl]acetic acid
@<TRIPOS>ATOM
      1 C1          2.5849   -2.2199    1.4096 C.3       1 <0>        -0.0856
      2 C2          1.1742   -2.7498    1.4191 C.2       1 <0>         0.0075
      3 C3          0.8302   -4.0485    1.4153 C.2       1 <0>        -0.1471
      4 C4         -0.6383   -4.0876    1.4285 C.2       1 <0>        -0.2591
      5 C5         -1.0514   -2.7687    1.4451 C.2       1 <0>         0.1179
      6 N1          0.0426   -1.9866    1.4336 N.pl3     1 <0>        -0.4331
      7 C6          0.0228   -0.5218    1.4416 C.3       1 <0>         0.1021
      8 C7          0.0021   -0.0041    0.0020 C.3       1 <0>        -0.0966
      9 C8         -0.0184    1.5028    0.0103 C.ar      1 <0>        -0.0805
     10 C9         -1.2250    2.1774    0.0197 C.ar      1 <0>        -0.1002
     11 C10        -1.2443    3.5593    0.0331 C.ar      1 <0>        -0.1068
     12 C11        -0.0559    4.2676    0.0255 C.ar      1 <0>        -0.0352
     13 C12         1.1514    3.5919    0.0104 C.ar      1 <0>        -0.1076
     14 C13         1.1695    2.2099    0.0028 C.ar      1 <0>        -0.1008
     15 Cl1        -0.0794    6.0034    0.0356 Cl        1 <0>        -0.0686
     16 C14        -2.4802   -2.2900    1.4688 C.3       1 <0>        -0.0987
     17 C15        -1.4895   -5.2793    1.4298 C.2       1 <0>         0.4504
     18 O1         -2.6973   -5.1621    1.4410 O.2       1 <0>        -0.4510
     19 C16        -0.8656   -6.6510    1.4172 C.3       1 <0>        -0.1789
     20 S1         -2.1691   -7.9068    1.4222 S.3       1 <0>         0.0934
     21 C17        -1.1857   -9.3687    1.4060 C.2       1 <0>         0.0407
     22 N2         -1.5747  -10.6301    1.4083 N.2       1 <0>        -0.4393
     23 C18        -0.6966  -11.6150    1.3906 C.2       1 <0>         0.1194
     24 C19         0.6219  -11.3050    1.3810 C.2       1 <0>        -0.2230
     25 S2          0.5441   -9.5199    1.3907 S.3       1 <0>        -0.0028
     26 C20        -1.1503  -13.0521    1.3877 C.3       1 <0>        -0.1007
     27 C21        -2.0689  -13.2912    2.5582 C.2       1 <0>         0.4681
     28 O2         -2.3285  -12.3874    3.3169 O.co2     1 <0>        -0.6194
     29 H1          2.9342   -2.0980    2.4349 H         1 <0>         0.0721
     30 H2          3.2333   -2.9224    0.8860 H         1 <0>         0.0830
     31 H3          2.6076   -1.2561    0.9010 H         1 <0>         0.0623
     32 H4          1.5001   -4.8956    1.4049 H         1 <0>         0.1497
     33 H5          0.9126   -0.1491    1.9490 H         1 <0>         0.0956
     34 H6         -0.8671   -0.1733    1.9659 H         1 <0>         0.0954
     35 H7         -0.8878   -0.3767   -0.5053 H         1 <0>         0.0852
     36 H8          0.8920   -0.3525   -0.5222 H         1 <0>         0.0850
     37 H9         -2.1527    1.6244    0.0211 H         1 <0>         0.1341
     38 H10        -2.1870    4.0862    0.0449 H         1 <0>         0.1355
     39 H11         2.0794    4.1443    0.0048 H         1 <0>         0.1350
     40 H12         2.1118    1.6824   -0.0087 H         1 <0>         0.1329
     41 H13        -2.8397   -2.1688    0.4469 H         1 <0>         0.0809
     42 H14        -3.0999   -3.0213    1.9876 H         1 <0>         0.1016
     43 H15        -2.5344   -1.3336    1.9888 H         1 <0>         0.0652
     44 H16        -0.3057   -6.7550    0.5952 H         1 <0>         0.1105
     45 H17        -0.2397   -6.7735    2.3011 H         1 <0>         0.1247
     46 H18         1.4828  -11.9570    1.3702 H         1 <0>         0.1946
     47 H19        -1.6816  -13.2635    0.4598 H         1 <0>         0.0847
     48 H20        -0.2828  -13.7072    1.4670 H         1 <0>         0.0834
     49 O3         -2.5988  -14.5082    2.7579 O.co2     1 <0>        -0.7757
@<TRIPOS>BOND
     1    1    2 1
     2    1   29 1
     3    1   30 1
     4    1   31 1
     5    2    6 1
     6    2    3 2
     7    3    4 1
     8    3   32 1
     9    4    5 2
    10    4   17 1
    11    5    6 1
    12    5   16 1
    13    6    7 1
    14    7    8 1
    15    7   33 1
    16    7   34 1
    17    8    9 1
    18    8   35 1
    19    8   36 1
    20    9   14 ar
    21    9   10 ar
    22   10   11 ar
    23   10   37 1
    24   11   12 ar
    25   11   38 1
    26   12   13 ar
    27   12   15 1
    28   13   14 ar
    29   13   39 1
    30   14   40 1
    31   16   41 1
    32   16   42 1
    33   16   43 1
    34   17   18 2
    35   17   19 1
    36   19   20 1
    37   19   44 1
    38   19   45 1
    39   20   21 1
    40   21   25 1
    41   21   22 2
    42   22   23 1
    43   23   24 2
    44   23   26 1
    45   24   25 1
    46   24   46 1
    47   26   27 1
    48   26   47 1
    49   26   48 1
    50   27   28 2
    51   27   49 1
