@<TRIPOS>MOLECULE
ZINC13218093
   50    54     0     0     0
SMALL
USER_CHARGES

@<TRIPOS>ATOM
      1 C1          4.3290   -0.7543   -1.4640 C.3       1 <0>        -0.1125
      2 C2          3.2034   -1.6830   -1.0875 C.ar      1 <0>        -0.0762
      3 C3          2.1260   -1.8411   -1.9416 C.ar      1 <0>        -0.1382
      4 C4          1.0925   -2.6894   -1.6032 C.ar      1 <0>        -0.0696
      5 C5          1.1352   -3.3899   -0.3958 C.ar      1 <0>        -0.1421
      6 C6          2.2256   -3.2259    0.4611 C.ar      1 <0>        -0.0620
      7 C7          3.2547   -2.3780    0.1081 C.ar      1 <0>        -0.1361
      8 C8          0.0306   -4.3007   -0.0262 C.2       1 <0>         0.5087
      9 O1         -0.9506   -4.3881   -0.7402 O.2       1 <0>        -0.4680
     10 C9          0.1177   -5.0982    1.2004 C.2       1 <0>        -0.4896
     11 C10         0.2235   -6.4458    1.2820 C.2       1 <0>         0.2750
     12 C11         0.2837   -6.8426    2.7038 C.2       1 <0>         0.5122
     13 O2          0.3807   -7.9852    3.1051 O.2       1 <0>        -0.4863
     14 N1          0.2156   -5.7520    3.4886 N.am      1 <0>        -0.5051
     15 C12         0.1132   -4.5750    2.6179 C.3       1 <0>         0.2672
     16 H1          0.9651   -3.9137    2.7759 H         1 <0>         0.0889
     17 C13        -1.1728   -3.8398    2.8948 C.ar      1 <0>        -0.0314
     18 C14        -2.3087   -4.5439    3.2496 C.ar      1 <0>        -0.1023
     19 C15        -3.4889   -3.8709    3.5040 C.ar      1 <0>        -0.0886
     20 C16        -3.5351   -2.4932    3.4034 C.ar      1 <0>        -0.1604
     21 C17        -2.3984   -1.7872    3.0482 C.ar      1 <0>         0.0947
     22 C18        -1.2150   -2.4620    2.7996 C.ar      1 <0>        -0.1372
     23 F1         -2.4424   -0.4405    2.9492 F         1 <0>        -0.1467
     24 C19         0.2428   -5.7414    4.8701 C.2       1 <0>         0.3847
     25 N2          0.1740   -4.7148    5.6894 N.2       1 <0>        -0.5375
     26 C20         0.2117   -4.8478    7.0231 C.ar      1 <0>         0.1018
     27 C21         0.1469   -3.8246    8.0028 C.ar      1 <0>        -0.0900
     28 C22         0.1985   -4.1175    9.3245 C.ar      1 <0>        -0.0726
     29 C23         0.3173   -5.4408    9.7776 C.ar      1 <0>        -0.1197
     30 C24         0.3835   -6.4766    8.8371 C.ar      1 <0>        -0.0293
     31 C25         0.3314   -6.1754    7.5049 C.ar      1 <0>        -0.1726
     32 S1          0.3723   -7.1202    6.0004 S.3       1 <0>         0.0314
     33 C26         0.3720   -5.7350   11.2179 C.2       1 <0>         0.5264
     34 O3          0.3138   -4.8228   12.0313 O.co2     1 <0>        -0.6870
     35 O4          0.4756   -6.8920   11.6025 O.co2     1 <0>        -0.6861
     36 O5          0.2669   -7.2939    0.2289 O.3       1 <0>        -0.6404
     37 H2          5.0825   -1.3059   -2.0263 H         1 <0>         0.0681
     38 H3          3.9399    0.0580   -2.0779 H         1 <0>         0.0632
     39 H4          4.7787   -0.3433   -0.5602 H         1 <0>         0.0650
     40 H5          2.0943   -1.2988   -2.8750 H         1 <0>         0.1197
     41 H6          0.2519   -2.8114   -2.2703 H         1 <0>         0.1289
     42 H7          2.2647   -3.7644    1.3965 H         1 <0>         0.1335
     43 H8          4.1005   -2.2534    0.7679 H         1 <0>         0.1225
     44 H9         -2.2738   -5.6205    3.3278 H         1 <0>         0.1179
     45 H10        -4.3755   -4.4219    3.7810 H         1 <0>         0.1275
     46 H11        -4.4575   -1.9677    3.6015 H         1 <0>         0.1282
     47 H12        -0.3265   -1.9119    2.5268 H         1 <0>         0.1313
     48 H13         0.0553   -2.7949    7.6902 H         1 <0>         0.1221
     49 H14         0.1474   -3.3151   10.0455 H         1 <0>         0.1342
     50 H15         0.4747   -7.5028    9.1613 H         1 <0>         0.1342
@<TRIPOS>BOND
     1    1    2 1
     2    1   37 1
     3    1   38 1
     4    1   39 1
     5    2    7 ar
     6    2    3 ar
     7    3    4 ar
     8    3   40 1
     9    4    5 ar
    10    4   41 1
    11    5    6 ar
    12    5    8 1
    13    6    7 ar
    14    6   42 1
    15    7   43 1
    16    8    9 2
    17    8   10 1
    18   10   15 1
    19   10   11 2
    20   11   12 1
    21   11   36 1
    22   12   13 2
    23   12   14 am
    24   14   15 1
    25   14   24 1
    26   15   16 1
    27   15   17 1
    28   17   22 ar
    29   17   18 ar
    30   18   19 ar
    31   18   44 1
    32   19   20 ar
    33   19   45 1
    34   20   21 ar
    35   20   46 1
    36   21   22 ar
    37   21   23 1
    38   22   47 1
    39   24   32 1
    40   24   25 2
    41   25   26 1
    42   26   31 ar
    43   26   27 ar
    44   27   28 ar
    45   27   48 1
    46   28   29 ar
    47   28   49 1
    48   29   30 ar
    49   29   33 1
    50   30   31 ar
    51   30   50 1
    52   31   32 1
    53   33   34 2
    54   33   35 1
