@<TRIPOS>MOLECULE
ZINC33530464
   64    67     0     0     0
SMALL
USER_CHARGES
(2S)-1-(5-acetyl-4-methyl-thiazol-2-yl)-2-(4-butoxy-3-ethoxy-phenyl)-3-(furan-2-carbonyl)-4-hydroxy-2H-pyrrol-5-one
@<TRIPOS>ATOM
      1 C1          2.8110   -6.7223    8.6383 C.3       1 <0>        -0.1528
      2 C2          2.8658   -6.1845    7.2070 C.3       1 <0>        -0.1217
      3 C3          2.2191   -4.7988    7.1577 C.3       1 <0>        -0.1193
      4 C4          2.2739   -4.2611    5.7263 C.3       1 <0>         0.0579
      5 O1          1.6699   -2.9668    5.6803 O.3       1 <0>        -0.3066
      6 C5          1.6360   -2.3439    4.4719 C.ar      1 <0>         0.1003
      7 C6          2.1721   -2.9651    3.3552 C.ar      1 <0>        -0.1776
      8 C7          2.1314   -2.3331    2.1264 C.ar      1 <0>        -0.0725
      9 C8          1.5668   -1.0765    2.0103 C.ar      1 <0>        -0.0697
     10 C9          1.0302   -0.4512    3.1204 C.ar      1 <0>        -0.1441
     11 C10         1.0627   -1.0815    4.3539 C.ar      1 <0>         0.0956
     12 O2          0.5357   -0.4676    5.4470 O.3       1 <0>        -0.3073
     13 C11         0.0876    0.8793    5.2817 C.3       1 <0>         0.0501
     14 C12        -0.3617    1.4369    6.6337 C.3       1 <0>        -0.1485
     15 C13         1.5306   -0.3894    0.6695 C.3       1 <0>         0.2593
     16 H1          2.0630   -1.0231   -0.0550 H         1 <0>         0.0949
     17 C14         0.1005   -0.1276    0.2581 C.2       1 <0>        -0.4598
     18 C15        -0.0293    1.2133    0.1300 C.2       1 <0>         0.2871
     19 C16         1.2610    1.8582    0.4405 C.2       1 <0>         0.5085
     20 O3          1.4661    3.0556    0.4138 O.2       1 <0>        -0.4770
     21 N1          2.1773    0.9253    0.7569 N.am      1 <0>        -0.4959
     22 C17         3.4930    1.1625    1.1020 C.2       1 <0>         0.3668
     23 N2          4.4367    0.2880    1.4209 N.2       1 <0>        -0.5583
     24 C18         5.6471    0.6676    1.7267 C.2       1 <0>         0.2117
     25 C19         5.9209    2.0341    1.7079 C.2       1 <0>        -0.3758
     26 S1          4.3278    2.6805    1.2196 S.3       1 <0>         0.1520
     27 C20         7.1213    2.7159    1.9901 C.2       1 <0>         0.4495
     28 O4          8.1147    2.0918    2.3055 O.2       1 <0>        -0.4724
     29 C21         7.1728    4.2194    1.9009 C.3       1 <0>        -0.2014
     30 C22         6.7114   -0.3362    2.0881 C.3       1 <0>        -0.1072
     31 O5         -1.1623    1.8603   -0.2316 O.3       1 <0>        -0.5857
     32 C23        -0.9454   -1.1333    0.0389 C.2       1 <0>         0.5024
     33 O6         -2.0941   -0.7828   -0.1666 O.2       1 <0>        -0.4632
     34 C24        -0.6082   -2.5596    0.0672 C.2       1 <0>        -0.0537
     35 C25        -1.5029   -3.6065    0.0126 C.2       1 <0>        -0.1603
     36 C26        -0.7434   -4.7841    0.0668 C.2       1 <0>        -0.2220
     37 C27         0.5560   -4.4182    0.1504 C.2       1 <0>        -0.0364
     38 O7          0.6336   -3.0812    0.1453 O.3       1 <0>        -0.1454
     39 H2          3.2760   -7.7186    8.6737 H         1 <0>         0.0556
     40 H3          1.7624   -6.7953    8.9627 H         1 <0>         0.0557
     41 H4          3.3552   -6.0397    9.3075 H         1 <0>         0.0555
     42 H5          3.9144   -6.1115    6.8826 H         1 <0>         0.0645
     43 H6          2.3216   -6.8671    6.5377 H         1 <0>         0.0646
     44 H7          1.1706   -4.8718    7.4821 H         1 <0>         0.0731
     45 H8          2.7633   -4.1162    7.8269 H         1 <0>         0.0727
     46 H9          3.3225   -4.1882    5.4019 H         1 <0>         0.0590
     47 H10         1.7297   -4.9437    5.0571 H         1 <0>         0.0593
     48 H11         2.6179   -3.9447    3.4441 H         1 <0>         0.1295
     49 H12         2.5452   -2.8203    1.2559 H         1 <0>         0.1268
     50 H13         0.5861    0.5288    3.0262 H         1 <0>         0.1260
     51 H14         0.9103    1.4935    4.8868 H         1 <0>         0.0566
     52 H15        -0.7569    0.9009    4.5772 H         1 <0>         0.0646
     53 H16        -0.7066    2.4736    6.5064 H         1 <0>         0.0773
     54 H17         0.4828    1.4153    7.3382 H         1 <0>         0.0635
     55 H18        -1.1844    0.8226    7.0285 H         1 <0>         0.0659
     56 H19         8.1851    4.5673    2.1545 H         1 <0>         0.0866
     57 H20         6.4485    4.6535    2.6059 H         1 <0>         0.0914
     58 H21         6.9224    4.5348    0.8773 H         1 <0>         0.0916
     59 H22         7.6516    0.1900    2.3096 H         1 <0>         0.1065
     60 H23         6.8668   -1.0254    1.2450 H         1 <0>         0.0789
     61 H24         6.3926   -0.9059    2.9735 H         1 <0>         0.0787
     62 H25        -2.5782   -3.5342   -0.0578 H         1 <0>         0.1509
     63 H26        -1.1247   -5.7943    0.0457 H         1 <0>         0.1457
     64 H27         1.3957   -5.0949    0.2080 H         1 <0>         0.1983
@<TRIPOS>BOND
     1    1    2 1
     2    1   39 1
     3    1   40 1
     4    1   41 1
     5    2    3 1
     6    2   42 1
     7    2   43 1
     8    3    4 1
     9    3   44 1
    10    3   45 1
    11    4    5 1
    12    4   46 1
    13    4   47 1
    14    5    6 1
    15    6   11 ar
    16    6    7 ar
    17    7    8 ar
    18    7   48 1
    19    8    9 ar
    20    8   49 1
    21    9   10 ar
    22    9   15 1
    23   10   11 ar
    24   10   50 1
    25   11   12 1
    26   12   13 1
    27   13   14 1
    28   13   51 1
    29   13   52 1
    30   14   53 1
    31   14   54 1
    32   14   55 1
    33   15   16 1
    34   15   21 1
    35   15   17 1
    36   17   18 2
    37   17   32 1
    38   18   19 1
    39   18   31 1
    40   19   20 2
    41   19   21 am
    42   21   22 1
    43   22   26 1
    44   22   23 2
    45   23   24 1
    46   24   25 2
    47   24   30 1
    48   25   26 1
    49   25   27 1
    50   27   28 2
    51   27   29 1
    52   29   56 1
    53   29   57 1
    54   29   58 1
    55   30   59 1
    56   30   60 1
    57   30   61 1
    58   32   33 2
    59   32   34 1
    60   34   38 1
    61   34   35 2
    62   35   36 1
    63   35   62 1
    64   36   37 2
    65   36   63 1
    66   37   38 1
    67   37   64 1
