@<TRIPOS>MOLECULE
ZINC13318924
   39    41     0     0     0
SMALL
USER_CHARGES

@<TRIPOS>ATOM
      1 C1          0.0969    1.4837    0.0401 C.3       1 <0>        -0.1008
      2 C2          0.1107   -0.0231    0.0275 C.2       1 <0>        -0.0527
      3 C3          0.0950   -0.7147   -1.1833 C.2       1 <0>        -0.2316
      4 C4          0.0649   -0.1769   -2.5621 C.2       1 <0>         0.5651
      5 O1          0.0501    1.0245   -2.7624 O.2       1 <0>        -0.5202
      6 N1          0.0546   -1.0473   -3.5901 N.am      1 <0>        -0.6215
      7 H1          0.0349   -0.7096   -4.4992 H         1 <0>         0.4174
      8 C5          0.0718   -2.3940   -3.3773 C.2       1 <0>         0.3426
      9 N2          0.0983   -2.9016   -2.1614 N.2       1 <0>        -0.4830
     10 C6          0.1103   -2.1281   -1.0884 C.2       1 <0>         0.0641
     11 S1          0.1449   -2.4237    0.6619 S.3       1 <0>         0.1835
     12 C7          0.1446   -0.7257    1.2116 C.2       1 <0>        -0.1752
     13 C8          0.1700   -0.2254    2.5355 C.2       1 <0>         0.5550
     14 O2          0.1628    0.9838    2.7338 O.co2     1 <0>        -0.6620
     15 O3          0.1992   -1.0016    3.4833 O.co2     1 <0>        -0.6800
     16 S2          0.0577   -3.4828   -4.7625 S.3       1 <0>         0.0661
     17 C9          0.0875   -5.1377   -4.0202 C.3       1 <0>        -0.1352
     18 C10         0.0782   -6.1777   -5.1109 C.2       1 <0>         0.5327
     19 O4          0.0539   -5.8361   -6.2742 O.2       1 <0>        -0.5270
     20 N3          0.0970   -7.4873   -4.7933 N.am      1 <0>        -0.6295
     21 C11        -0.0054   -8.4478   -5.7952 C.ar      1 <0>         0.1860
     22 C12         0.5756   -8.2260   -7.0360 C.ar      1 <0>        -0.1307
     23 C13         0.4723   -9.1807   -8.0294 C.ar      1 <0>        -0.0211
     24 C14        -0.2109  -10.3660   -7.7964 C.ar      1 <0>        -0.1432
     25 C15        -0.7932  -10.6038   -6.5719 C.ar      1 <0>        -0.0578
     26 C16        -0.6924   -9.6492   -5.5540 C.ar      1 <0>        -0.1538
     27 C17        -1.3074   -9.8992   -4.2417 C.2       1 <0>         0.5250
     28 O5         -1.8195  -10.9844   -4.0028 O.co2     1 <0>        -0.6771
     29 O6         -1.3068   -9.0219   -3.3887 O.co2     1 <0>        -0.6797
     30 Cl1         1.2013   -8.8956   -9.5789 Cl        1 <0>        -0.0885
     31 H2          1.1210    1.8566    0.0198 H         1 <0>         0.0593
     32 H3         -0.4403    1.8495   -0.8350 H         1 <0>         0.0629
     33 H4         -0.3998    1.8350    0.9445 H         1 <0>         0.0957
     34 H5          0.9896   -5.2500   -3.4188 H         1 <0>         0.1329
     35 H6         -0.7900   -5.2676   -3.3868 H         1 <0>         0.1387
     36 H7          0.1818   -7.7605   -3.8664 H         1 <0>         0.4315
     37 H8          1.1087   -7.3061   -7.2253 H         1 <0>         0.1462
     38 H9         -0.2865  -11.1055   -8.5799 H         1 <0>         0.1261
     39 H10        -1.3238  -11.5278   -6.3959 H         1 <0>         0.1398
@<TRIPOS>BOND
     1    1    2 1
     2    1   31 1
     3    1   32 1
     4    1   33 1
     5    2   12 2
     6    2    3 1
     7    3   10 2
     8    3    4 1
     9    4    5 2
    10    4    6 am
    11    6    7 1
    12    6    8 1
    13    8    9 2
    14    8   16 1
    15    9   10 1
    16   10   11 1
    17   11   12 1
    18   12   13 1
    19   13   14 2
    20   13   15 1
    21   16   17 1
    22   17   18 1
    23   17   34 1
    24   17   35 1
    25   18   19 2
    26   18   20 am
    27   20   21 1
    28   20   36 1
    29   21   26 ar
    30   21   22 ar
    31   22   23 ar
    32   22   37 1
    33   23   24 ar
    34   23   30 1
    35   24   25 ar
    36   24   38 1
    37   25   26 ar
    38   25   39 1
    39   26   27 1
    40   27   28 2
    41   27   29 1
