@<TRIPOS>MOLECULE
ZINC21318662
   46    48     0     0     0
SMALL
USER_CHARGES
2-[[4-amino-5-[(N'E)-N'-[(3,5-dichloro-2-hydroxy-phenyl)methylene]hydrazino]-1,2,4-triazol-3-yl]sulfanyl]-N-[(4-fluorophenyl)methyl]acetamide
@<TRIPOS>ATOM
      1 C1         -5.3254   -4.5776    1.2259 C.ar      1 <0>        -0.0692
      2 C2         -6.6629   -4.9255    1.2381 C.ar      1 <0>        -0.1554
      3 C3         -7.3442   -5.0958    0.0448 C.ar      1 <0>         0.1071
      4 C4         -6.6859   -4.9122   -1.1593 C.ar      1 <0>        -0.1554
      5 C5         -5.3498   -4.5592   -1.1690 C.ar      1 <0>        -0.0692
      6 C6         -4.6705   -4.3894    0.0231 C.ar      1 <0>        -0.1199
      7 C7         -3.2134   -4.0050    0.0112 C.3       1 <0>         0.1658
      8 N1         -3.0935   -2.5449    0.0179 N.am      1 <0>        -0.7329
      9 C8         -1.8752   -1.9688    0.0094 C.2       1 <0>         0.5401
     10 O1         -0.8780   -2.6590   -0.0038 O.2       1 <0>        -0.5284
     11 C9         -1.7518   -0.4668    0.0163 C.3       1 <0>        -0.1434
     12 S1          0.0021   -0.0041    0.0020 S.3       1 <0>         0.0568
     13 C10        -0.0218    1.7577    0.0117 C.2       1 <0>         0.1577
     14 N2         -1.0934    2.5142    0.0203 N.2       1 <0>        -0.3092
     15 N3         -0.6785    3.8524    0.0279 N.2       1 <0>        -0.2961
     16 C11         0.6323    3.8701    0.0160 C.2       1 <0>         0.5026
     17 N4          1.0723    2.5756    0.0057 N.pl3     1 <0>        -0.2724
     18 N5          2.3770    2.1711   -0.0079 N.3       1 <0>        -0.7798
     19 N6          1.4325    5.0034    0.0146 N.pl3     1 <0>        -0.5772
     20 N7          0.8455    6.2754    0.0261 N.2       1 <0>        -0.1586
     21 C12         1.5947    7.3363    0.0247 C.2       1 <0>         0.1176
     22 C13         0.9772    8.6744    0.0368 C.ar      1 <0>        -0.2022
     23 C14         1.7795    9.8180    0.0355 C.ar      1 <0>        -0.0201
     24 C15         1.1953   11.0683    0.0464 C.ar      1 <0>        -0.1667
     25 C16        -0.1843   11.1941    0.0587 C.ar      1 <0>        -0.0413
     26 C17        -0.9888   10.0689    0.0597 C.ar      1 <0>        -0.1566
     27 C18        -0.4176    8.8062    0.0439 C.ar      1 <0>         0.2984
     28 O2         -1.2073    7.7004    0.0397 O.3       1 <0>        -0.6163
     29 Cl1        -2.7164   10.2386    0.0746 Cl        1 <0>        -0.0967
     30 Cl2         2.1931   12.4889    0.0452 Cl        1 <0>        -0.1157
     31 F1         -8.6505   -5.4404    0.0554 F         1 <0>        -0.1380
     32 H1         -4.7927   -4.4487    2.1565 H         1 <0>         0.1361
     33 H2         -7.1754   -5.0684    2.1779 H         1 <0>         0.1380
     34 H3         -7.2164   -5.0444   -2.0907 H         1 <0>         0.1380
     35 H4         -4.8362   -4.4156   -2.1081 H         1 <0>         0.1362
     36 H5         -2.7180   -4.4177    0.9024 H         1 <0>         0.0797
     37 H6         -2.7352   -4.4080   -0.8937 H         1 <0>         0.0797
     38 H7         -3.9979   -1.9188    0.0299 H         1 <0>         0.4294
     39 H8         -2.2472   -0.0541   -0.8749 H         1 <0>         0.1283
     40 H9         -2.2300   -0.0637    0.9212 H         1 <0>         0.1283
     41 H10         3.1844    2.9181   -0.0117 H         1 <0>         0.4348
     42 H11         2.6202    1.0983   -0.0151 H         1 <0>         0.4414
     43 H12         2.5279    4.9032    0.0045 H         1 <0>         0.3813
     44 H13         2.6901    7.2361    0.0145 H         1 <0>         0.0988
     45 H14         2.8554    9.7238    0.0262 H         1 <0>         0.1112
     46 H15        -0.6340   12.1759    0.0672 H         1 <0>         0.1134
@<TRIPOS>BOND
     1    1    6 ar
     2    1    2 ar
     3    1   32 1
     4    2    3 ar
     5    2   33 1
     6    3    4 ar
     7    3   31 1
     8    4    5 ar
     9    4   34 1
    10    5    6 ar
    11    5   35 1
    12    6    7 1
    13    7    8 1
    14    7   36 1
    15    7   37 1
    16    8    9 am
    17    8   38 1
    18    9   10 2
    19    9   11 1
    20   11   12 1
    21   11   39 1
    22   11   40 1
    23   12   13 1
    24   13   17 1
    25   13   14 2
    26   14   15 1
    27   15   16 2
    28   16   17 1
    29   16   19 1
    30   17   18 1
    31   18   41 1
    32   18   42 1
    33   19   20 1
    34   19   43 1
    35   20   21 2
    36   21   22 1
    37   21   44 1
    38   22   27 ar
    39   22   23 ar
    40   23   24 ar
    41   23   45 1
    42   24   25 ar
    43   24   30 1
    44   25   26 ar
    45   25   46 1
    46   26   27 ar
    47   26   29 1
    48   27   28 1
