@<TRIPOS>MOLECULE
ZINC36313401
   75    79     0     0     0
SMALL
USER_CHARGES

@<TRIPOS>ATOM
      1 C1         -3.6283    3.5290    4.6330 C.3       1 <0>        -0.1090
      2 C2         -3.3922    2.3477    3.7275 C.ar      1 <0>        -0.1070
      3 C3         -3.9834    2.3042    2.4794 C.ar      1 <0>        -0.0813
      4 C4         -3.7676    1.2206    1.6485 C.ar      1 <0>        -0.1420
      5 C5         -2.9597    0.1780    2.0637 C.ar      1 <0>        -0.0860
      6 C6         -2.3660    0.2169    3.3103 C.ar      1 <0>        -0.2047
      7 C7         -2.5768    1.3058    4.1440 C.ar      1 <0>         0.1146
      8 O1         -1.9893    1.3491    5.3688 O.3       1 <0>        -0.2974
      9 C8         -1.1626    0.2414    5.7312 C.3       1 <0>         0.0312
     10 C9         -0.5930    0.4673    7.1331 C.3       1 <0>         0.0931
     11 H1         -0.0742    1.4254    7.1645 H         1 <0>         0.1323
     12 C10         0.3893   -0.6558    7.4717 C.3       1 <0>        -0.0597
     13 N1          0.8702   -0.4871    8.8494 N.4       1 <0>        -0.3751
     14 C11         2.0677   -1.3127    9.0547 C.3       1 <0>         0.0692
     15 C12         3.1973   -0.7773    8.2129 C.2       1 <0>        -0.3136
     16 C13         3.8220   -1.4471    7.1399 C.2       1 <0>         0.1676
     17 N2          4.7566   -0.6592    6.6604 N.2       1 <0>        -0.2582
     18 O2          4.7517    0.5371    7.4178 O.3       1 <0>        -0.0705
     19 C14         3.7887    0.4362    8.3498 C.2       1 <0>         0.3771
     20 N3          3.4605    1.3991    9.2867 N.pl3     1 <0>        -0.6481
     21 C15         4.1491    1.4577   10.5858 C.3       1 <0>         0.1038
     22 C16         4.6299    2.8954   10.8137 C.3       1 <0>         0.0406
     23 O3          3.5313    3.7928   10.6364 O.3       1 <0>        -0.3662
     24 C17         2.9782    3.7875    9.3181 C.3       1 <0>         0.0459
     25 C18         2.4166    2.3991    9.0114 C.3       1 <0>         0.0879
     26 C19         3.4830   -2.8033    6.6414 C.ar      1 <0>        -0.0876
     27 C20         2.1597   -3.2391    6.6447 C.ar      1 <0>        -0.0893
     28 C21         1.8497   -4.5007    6.1797 C.ar      1 <0>        -0.1238
     29 C22         2.8496   -5.3342    5.7105 C.ar      1 <0>        -0.0588
     30 C23         4.1650   -4.9093    5.7044 C.ar      1 <0>        -0.1422
     31 C24         4.4874   -3.6446    6.1622 C.ar      1 <0>         0.1452
     32 F1          5.7723   -3.2274    6.1509 F         1 <0>        -0.1170
     33 C25        -0.1792   -0.9045    9.7889 C.3       1 <0>        -0.0516
     34 C26         0.3232   -0.7329   11.2238 C.3       1 <0>         0.0550
     35 H2          1.1979   -1.3625   11.3870 H         1 <0>         0.1016
     36 C27        -0.7924   -1.1183   12.2189 C.3       1 <0>        -0.1452
     37 C28        -0.6248   -0.0487   13.3324 C.3       1 <0>        -0.1559
     38 C29        -0.1766    1.1772   12.4976 C.3       1 <0>         0.0505
     39 O4          0.6610    0.6390   11.4596 O.3       1 <0>        -0.3799
     40 O5         -1.6585    0.4713    8.0853 O.3       1 <0>        -0.5342
     41 H3         -2.8701    4.2890    4.4439 H         1 <0>         0.0700
     42 H4         -4.6165    3.9452    4.4371 H         1 <0>         0.0693
     43 H5         -3.5690    3.2074    5.6727 H         1 <0>         0.0697
     44 H6         -4.6148    3.1173    2.1528 H         1 <0>         0.1341
     45 H7         -4.2312    1.1882    0.6736 H         1 <0>         0.1293
     46 H8         -2.7929   -0.6676    1.4129 H         1 <0>         0.1277
     47 H9         -1.7351   -0.5976    3.6341 H         1 <0>         0.1231
     48 H10        -1.7560   -0.6729    5.7232 H         1 <0>         0.0783
     49 H11        -0.3443    0.1497    5.0170 H         1 <0>         0.0812
     50 H12        -0.1131   -1.6185    7.3775 H         1 <0>         0.1438
     51 H13         1.2347   -0.6185    6.7846 H         1 <0>         0.1423
     52 H14         2.3530   -1.2839   10.1063 H         1 <0>         0.1465
     53 H15         1.8541   -2.3413    8.7642 H         1 <0>         0.1424
     54 H16         3.4597    1.1710   11.3799 H         1 <0>         0.0915
     55 H17         5.0039    0.7814   10.5791 H         1 <0>         0.0896
     56 H18         5.0196    2.9926   11.8270 H         1 <0>         0.1142
     57 H19         5.4150    3.1347   10.0964 H         1 <0>         0.0612
     58 H20         2.1795    4.5266    9.2554 H         1 <0>         0.1142
     59 H21         3.7572    4.0301    8.5954 H         1 <0>         0.0634
     60 H22         2.1247    2.3459    7.9626 H         1 <0>         0.0818
     61 H23         1.5499    2.2087    9.6443 H         1 <0>         0.0871
     62 H24         1.3776   -2.5906    7.0111 H         1 <0>         0.1223
     63 H25         0.8239   -4.8387    6.1822 H         1 <0>         0.1433
     64 H26         2.6014   -6.3208    5.3480 H         1 <0>         0.1482
     65 H27         4.9415   -5.5642    5.3374 H         1 <0>         0.1524
     66 H28        -1.0668   -0.2898    9.6387 H         1 <0>         0.1673
     67 H29        -0.4283   -1.9511    9.6138 H         1 <0>         0.1376
     68 H30        -1.7737   -1.0405   11.7508 H         1 <0>         0.0894
     69 H31        -0.6291   -2.1203   12.6158 H         1 <0>         0.0971
     70 H32        -1.5714    0.1446   13.8371 H         1 <0>         0.0962
     71 H33         0.1458   -0.3414   14.0455 H         1 <0>         0.0867
     72 H34        -1.0429    1.6772   12.0644 H         1 <0>         0.0724
     73 H35         0.3904    1.8709   13.1184 H         1 <0>         0.1000
     74 H36        -2.1649   -0.3521    8.1124 H         1 <0>         0.3884
     75 H37         1.0986    0.4826    9.0095 H         1 <0>         0.4265
@<TRIPOS>BOND
     1    1    2 1
     2    1   41 1
     3    1   42 1
     4    1   43 1
     5    2    7 ar
     6    2    3 ar
     7    3    4 ar
     8    3   44 1
     9    4    5 ar
    10    4   45 1
    11    5    6 ar
    12    5   46 1
    13    6    7 ar
    14    6   47 1
    15    7    8 1
    16    8    9 1
    17    9   10 1
    18    9   48 1
    19    9   49 1
    20   10   11 1
    21   10   12 1
    22   10   40 1
    23   12   13 1
    24   12   50 1
    25   12   51 1
    26   13   14 1
    27   13   33 1
    28   13   75 1
    29   14   15 1
    30   14   52 1
    31   14   53 1
    32   15   19 2
    33   15   16 1
    34   16   17 2
    35   16   26 1
    36   17   18 1
    37   18   19 1
    38   19   20 1
    39   20   25 1
    40   20   21 1
    41   21   22 1
    42   21   54 1
    43   21   55 1
    44   22   23 1
    45   22   56 1
    46   22   57 1
    47   23   24 1
    48   24   25 1
    49   24   58 1
    50   24   59 1
    51   25   60 1
    52   25   61 1
    53   26   31 ar
    54   26   27 ar
    55   27   28 ar
    56   27   62 1
    57   28   29 ar
    58   28   63 1
    59   29   30 ar
    60   29   64 1
    61   30   31 ar
    62   30   65 1
    63   31   32 1
    64   33   34 1
    65   33   66 1
    66   33   67 1
    67   34   35 1
    68   34   39 1
    69   34   36 1
    70   36   37 1
    71   36   68 1
    72   36   69 1
    73   37   38 1
    74   37   70 1
    75   37   71 1
    76   38   39 1
    77   38   72 1
    78   38   73 1
    79   40   74 1
