@<TRIPOS>MOLECULE
ZINC15672892
   74    77     0     0     0
SMALL
USER_CHARGES
N-cyclooctyl-(3-diethylaminopropyl)-methyl-oxo-BLAHcarboxamide
@<TRIPOS>ATOM
      1 C1         -1.6484    7.2163   -0.3380 C.3       1 <0>        -0.1849
      2 C2         -0.8585    6.6878   -1.5370 C.3       1 <0>        -0.0139
      3 C3          1.0526    8.0020   -0.8419 C.3       1 <0>        -0.0111
      4 C4          0.9086    8.9406   -2.0416 C.3       1 <0>        -0.1884
      5 C5          0.8503    5.6939   -0.1389 C.3       1 <0>        -0.0071
      6 C6          0.7099    4.2732   -0.6891 C.3       1 <0>        -0.1701
      7 C7          1.1250    3.2666    0.3858 C.3       1 <0>         0.0879
      8 N1          1.1008    1.9140   -0.1764 N.am      1 <0>        -0.6113
      9 C8         -0.0685    1.2317   -0.1938 C.2       1 <0>         0.6106
     10 O1         -1.1323    1.7741    0.0427 O.2       1 <0>        -0.4981
     11 C9          0.0170   -0.1973   -0.5196 C.2       1 <0>        -0.0285
     12 C10        -0.9633   -1.1061   -0.7881 C.2       1 <0>        -0.0296
     13 C11        -0.3369   -2.3193   -1.0473 C.2       1 <0>        -0.2080
     14 C12         1.0531   -2.1635   -0.9347 C.2       1 <0>         0.0785
     15 N2          1.2495   -0.8366   -0.5979 N.pl3     1 <0>        -0.4343
     16 C13         2.5062   -0.1307   -0.3355 C.3       1 <0>         0.1052
     17 C14         2.3367    1.3443   -0.6998 C.3       1 <0>         0.1484
     18 C15         2.3368    1.4800   -2.2238 C.3       1 <0>        -0.1500
     19 C16         3.5035    2.1199   -0.1449 C.2       1 <0>         0.5193
     20 O2          4.3769    2.5156   -0.8875 O.2       1 <0>        -0.4993
     21 N3          3.5764    2.3739    1.1767 N.am      1 <0>        -0.7232
     22 C17         4.6488    3.2230    1.7014 C.3       1 <0>         0.1193
     23 C18         5.9209    2.3901    1.8732 C.3       1 <0>        -0.1301
     24 C19         7.1232    3.3227    2.0321 C.3       1 <0>        -0.1264
     25 C20         7.0311    4.4542    1.0065 C.3       1 <0>        -0.1311
     26 C21         6.7969    5.7813    1.7311 C.3       1 <0>        -0.1248
     27 C22         5.3392    5.8609    2.1891 C.3       1 <0>        -0.1255
     28 C23         5.1410    4.9708    3.4174 C.3       1 <0>        -0.1286
     29 C24         4.2283    3.7972    3.0559 C.3       1 <0>        -0.1273
     30 C25         1.8137   -3.3168   -1.1762 C.2       1 <0>        -0.1572
     31 C26         1.2042   -4.4790   -1.4902 C.2       1 <0>        -0.1290
     32 S1         -0.5234   -4.0317   -1.4717 S.3       1 <0>         0.1058
     33 H1         -1.4186    6.6154    0.5419 H         1 <0>         0.0794
     34 H2         -1.3736    8.2544   -0.1509 H         1 <0>         0.0806
     35 H3         -2.7157    7.1556   -0.5507 H         1 <0>         0.1063
     36 H4         -1.0225    7.3389   -2.3956 H         1 <0>         0.1299
     37 H5         -1.1940    5.6788   -1.7769 H         1 <0>         0.1287
     38 H6          0.4627    8.3842   -0.0088 H         1 <0>         0.1329
     39 H7          2.1009    7.9450   -0.5489 H         1 <0>         0.1274
     40 H8          1.4149    8.5078   -2.9044 H         1 <0>         0.0791
     41 H9         -0.1481    9.0773   -2.2712 H         1 <0>         0.0811
     42 H10         1.3565    9.9055   -1.8038 H         1 <0>         0.1059
     43 H11         0.1415    5.8395    0.6763 H         1 <0>         0.1370
     44 H12         1.8649    5.8417    0.2310 H         1 <0>         0.1278
     45 H13         1.3512    4.1569   -1.5628 H         1 <0>         0.0878
     46 H14        -0.3271    4.0944   -0.9732 H         1 <0>         0.0995
     47 H15         0.4312    3.3240    1.2245 H         1 <0>         0.0982
     48 H16         2.1325    3.4986    0.7311 H         1 <0>         0.1121
     49 H17        -2.0268   -0.9185   -0.7972 H         1 <0>         0.1622
     50 H18         2.7597   -0.2183    0.7210 H         1 <0>         0.0935
     51 H19         3.3020   -0.5662   -0.9398 H         1 <0>         0.1180
     52 H20         1.5132    0.9001   -2.6403 H         1 <0>         0.0738
     53 H21         2.2164    2.5288   -2.4951 H         1 <0>         0.0690
     54 H22         3.2809    1.1079   -2.6216 H         1 <0>         0.0878
     55 H23         2.9188    1.9946    1.7805 H         1 <0>         0.4039
     56 H24         4.8402    4.0389    1.0044 H         1 <0>         0.1161
     57 H25         5.8277    1.7631    2.7600 H         1 <0>         0.0669
     58 H26         6.0636    1.7594    0.9957 H         1 <0>         0.0683
     59 H27         8.0429    2.7603    1.8709 H         1 <0>         0.0660
     60 H28         7.1263    3.7433    3.0377 H         1 <0>         0.0759
     61 H29         6.2023    4.2608    0.3256 H         1 <0>         0.0734
     62 H30         7.9612    4.5083    0.4407 H         1 <0>         0.0632
     63 H31         7.0107    6.6080    1.0535 H         1 <0>         0.0615
     64 H32         7.4543    5.8429    2.5983 H         1 <0>         0.0690
     65 H33         4.6867    5.5210    1.3849 H         1 <0>         0.0614
     66 H34         5.0944    6.8920    2.4443 H         1 <0>         0.0616
     67 H35         4.6843    5.5528    4.2179 H         1 <0>         0.0689
     68 H36         6.1068    4.5907    3.7502 H         1 <0>         0.0821
     69 H37         3.1963    4.1435    2.9991 H         1 <0>         0.0653
     70 H38         4.3108    3.0241    3.8197 H         1 <0>         0.0745
     71 H39         2.8909   -3.2744   -1.1112 H         1 <0>         0.1342
     72 H40         1.6504   -5.4399   -1.6997 H         1 <0>         0.1997
     73 N4          0.5872    6.6542   -1.2312 N.4       1 <0>        -0.3946
     74 H41         1.0985    6.3541   -2.0695 H         1 <0>         0.4272
@<TRIPOS>BOND
     1    1    2 1
     2    1   33 1
     3    1   34 1
     4    1   35 1
     5    2   36 1
     6    2   37 1
     7    2   73 1
     8    3    4 1
     9    3   38 1
    10    3   39 1
    11    3   73 1
    12    4   40 1
    13    4   41 1
    14    4   42 1
    15    5    6 1
    16    5   43 1
    17    5   44 1
    18    5   73 1
    19    6    7 1
    20    6   45 1
    21    6   46 1
    22    7    8 1
    23    7   47 1
    24    7   48 1
    25    8   17 1
    26    8    9 am
    27    9   10 2
    28    9   11 1
    29   11   15 1
    30   11   12 2
    31   12   13 1
    32   12   49 1
    33   13   32 1
    34   13   14 2
    35   14   15 1
    36   14   30 1
    37   15   16 1
    38   16   17 1
    39   16   50 1
    40   16   51 1
    41   17   18 1
    42   17   19 1
    43   18   52 1
    44   18   53 1
    45   18   54 1
    46   19   20 2
    47   19   21 am
    48   21   22 1
    49   21   55 1
    50   22   29 1
    51   22   23 1
    52   22   56 1
    53   23   24 1
    54   23   57 1
    55   23   58 1
    56   24   25 1
    57   24   59 1
    58   24   60 1
    59   25   26 1
    60   25   61 1
    61   25   62 1
    62   26   27 1
    63   26   63 1
    64   26   64 1
    65   27   28 1
    66   27   65 1
    67   27   66 1
    68   28   29 1
    69   28   67 1
    70   28   68 1
    71   29   69 1
    72   29   70 1
    73   30   31 2
    74   30   71 1
    75   31   32 1
    76   31   72 1
    77   73   74 1
