@<TRIPOS>MOLECULE
ZINC11664074
   68    70     0     0     0
SMALL
USER_CHARGES
(2S)-1-(isopropyl-methyl-amino)-3-[2-methoxy-5-[[(3-phenyl-1H-pyrazol-4-yl)methylamino]methyl]phenoxy]propan-2-ol
@<TRIPOS>ATOM
      1 C1          7.9947   -6.2826    6.4612 C.3       1 <0>        -0.1829
      2 C2          6.7781   -6.0359    7.3555 C.3       1 <0>         0.0278
      3 C3          6.8102   -7.0051    8.5390 C.3       1 <0>        -0.1873
      4 C4          8.0883   -4.3597    8.5116 C.3       1 <0>        -0.0574
      5 C5          6.5415   -3.6984    6.7701 C.3       1 <0>        -0.0391
      6 C6          6.3342   -2.3025    7.3612 C.3       1 <0>         0.0841
      7 H1          7.2316   -1.9992    7.9003 H         1 <0>         0.1370
      8 C7          6.0561   -1.3071    6.2330 C.3       1 <0>         0.0284
      9 O1          5.9779    0.0141    6.7720 O.3       1 <0>        -0.2832
     10 C8          5.7340    1.0250    5.8956 C.ar      1 <0>         0.0967
     11 C9          5.5734    0.7510    4.5468 C.ar      1 <0>        -0.1494
     12 C10         5.3251    1.7797    3.6574 C.ar      1 <0>        -0.1684
     13 C11         5.2419    3.0836    4.1095 C.ar      1 <0>        -0.0722
     14 C12         5.3954    3.3631    5.4546 C.ar      1 <0>        -0.1743
     15 C13         5.6445    2.3367    6.3515 C.ar      1 <0>         0.1476
     16 O2          5.8018    2.6106    7.6742 O.3       1 <0>        -0.2971
     17 C14         5.6970    3.9797    8.0701 C.3       1 <0>         0.0185
     18 C15         5.1508    1.4799    2.1908 C.3       1 <0>         0.0521
     19 C16         3.5239    0.9254    0.4854 C.3       1 <0>         0.0862
     20 C17         2.0842    0.5429    0.2575 C.2       1 <0>        -0.3159
     21 C18         1.1395    1.3123   -0.3260 C.2       1 <0>         0.1259
     22 N1         -0.0159    0.6135   -0.3418 N.pl3     1 <0>        -0.4528
     23 H2         -0.8885    0.9307   -0.7133 H         1 <0>         0.4651
     24 N2          0.2200   -0.6327    0.2525 N.2       1 <0>        -0.2525
     25 C19         1.4844   -0.6802    0.6154 C.2       1 <0>         0.1309
     26 C20         2.1589   -1.8211    1.2832 C.ar      1 <0>        -0.0379
     27 C21         3.4326   -2.2146    0.8783 C.ar      1 <0>        -0.1099
     28 C22         4.0571   -3.2735    1.5058 C.ar      1 <0>        -0.1173
     29 C23         3.4165   -3.9502    2.5281 C.ar      1 <0>        -0.1071
     30 C24         2.1500   -3.5668    2.9308 C.ar      1 <0>        -0.1139
     31 C25         1.5183   -2.5062    2.3135 C.ar      1 <0>        -0.0845
     32 O3          5.2236   -2.3260    8.2602 O.3       1 <0>        -0.5390
     33 H3          8.9068   -6.1236    7.0364 H         1 <0>         0.0849
     34 H4          7.9722   -7.3079    6.0918 H         1 <0>         0.1076
     35 H5          7.9719   -5.5922    5.6181 H         1 <0>         0.0765
     36 H6          5.8661   -6.1949    6.7803 H         1 <0>         0.1347
     37 H7          5.9435   -6.8293    9.1762 H         1 <0>         0.0827
     38 H8          6.7877   -8.0303    8.1697 H         1 <0>         0.1088
     39 H9          7.7223   -6.8461    9.1142 H         1 <0>         0.0838
     40 H10         8.0579   -3.3545    8.9320 H         1 <0>         0.1242
     41 H11         8.2613   -5.0821    9.3093 H         1 <0>         0.1295
     42 H12         8.8955   -4.4240    7.7819 H         1 <0>         0.1274
     43 H13         5.6440   -4.0017    6.2310 H         1 <0>         0.1346
     44 H14         7.3886   -3.6804    6.0844 H         1 <0>         0.1445
     45 H15         5.1117   -1.5592    5.7506 H         1 <0>         0.0760
     46 H16         6.8620   -1.3536    5.5006 H         1 <0>         0.0824
     47 H17         5.6420   -0.2662    4.1905 H         1 <0>         0.1390
     48 H18         5.0524    3.8851    3.4108 H         1 <0>         0.1411
     49 H19         5.3259    4.3821    5.8058 H         1 <0>         0.1518
     50 H20         6.4595    4.5657    7.5570 H         1 <0>         0.0651
     51 H21         4.7095    4.3592    7.8078 H         1 <0>         0.0641
     52 H22         5.8421    4.0585    9.1475 H         1 <0>         0.1140
     53 H23         5.7392    0.6011    1.9272 H         1 <0>         0.1351
     54 H24         5.4888    2.3333    1.6028 H         1 <0>         0.1422
     55 H25         4.1707    0.0999    0.1878 H         1 <0>         0.1342
     56 H26         3.7640    1.8073   -0.1085 H         1 <0>         0.1403
     57 H27         1.2830    2.3109   -0.7115 H         1 <0>         0.1945
     58 H28         3.9318   -1.6897    0.0772 H         1 <0>         0.1285
     59 H29         5.0459   -3.5770    1.1952 H         1 <0>         0.1321
     60 H30         3.9072   -4.7807    3.0138 H         1 <0>         0.1264
     61 H31         1.6544   -4.0986    3.7296 H         1 <0>         0.1319
     62 H32         0.5294   -2.2077    2.6288 H         1 <0>         0.1320
     63 H33         4.3892   -2.5881    7.8477 H         1 <0>         0.3886
     64 N3          6.7877   -4.6513    7.8728 N.4       1 <0>        -0.3894
     65 H34         6.0427   -4.5515    8.5724 H         1 <0>         0.4350
     66 N4          3.7245    1.2223    1.9163 N.4       1 <0>        -0.5194
     67 H35         3.1755    2.0519    2.1703 H         1 <0>         0.4312
     68 H36         3.4114    0.4202    2.4757 H         1 <0>         0.4262
@<TRIPOS>BOND
     1    1    2 1
     2    1   33 1
     3    1   34 1
     4    1   35 1
     5    2    3 1
     6    2   36 1
     7    2   64 1
     8    3   37 1
     9    3   38 1
    10    3   39 1
    11    4   40 1
    12    4   41 1
    13    4   42 1
    14    4   64 1
    15    5    6 1
    16    5   43 1
    17    5   44 1
    18    5   64 1
    19    6    7 1
    20    6    8 1
    21    6   32 1
    22    8    9 1
    23    8   45 1
    24    8   46 1
    25    9   10 1
    26   10   15 ar
    27   10   11 ar
    28   11   12 ar
    29   11   47 1
    30   12   13 ar
    31   12   18 1
    32   13   14 ar
    33   13   48 1
    34   14   15 ar
    35   14   49 1
    36   15   16 1
    37   16   17 1
    38   17   50 1
    39   17   51 1
    40   17   52 1
    41   18   53 1
    42   18   54 1
    43   18   66 1
    44   19   20 1
    45   19   55 1
    46   19   56 1
    47   19   66 1
    48   20   25 1
    49   20   21 2
    50   21   22 1
    51   21   57 1
    52   22   23 1
    53   22   24 1
    54   24   25 2
    55   25   26 1
    56   26   31 ar
    57   26   27 ar
    58   27   28 ar
    59   27   58 1
    60   28   29 ar
    61   28   59 1
    62   29   30 ar
    63   29   60 1
    64   30   31 ar
    65   30   61 1
    66   31   62 1
    67   32   63 1
    68   64   65 1
    69   66   67 1
    70   66   68 1
