@<TRIPOS>MOLECULE
ZINC36631871
   69    71     0     0     0
SMALL
USER_CHARGES

@<TRIPOS>ATOM
      1 C1         -0.0187    1.5258    0.0104 C.3       1 <0>        -0.1534
      2 C2          0.0021   -0.0041    0.0020 C.3       1 <0>        -0.1232
      3 C3         -1.4333   -0.5336    0.0129 C.3       1 <0>        -0.1455
      4 C4         -1.4126   -2.0635    0.0045 C.3       1 <0>         0.1112
      5 N1         -2.7870   -2.5706    0.0149 N.pl3     1 <0>        -0.9938
      6 C5         -3.5245   -2.7136   -1.2428 C.3       1 <0>         0.1227
      7 C6         -3.1874   -4.0626   -1.8812 C.3       1 <0>        -0.1424
      8 C7         -3.9576   -4.2119   -3.1947 C.3       1 <0>        -0.1222
      9 C8         -3.6205   -5.5609   -3.8331 C.3       1 <0>        -0.1536
     10 S1         -3.5069   -2.9821    1.4483 S.o2      1 <0>         2.6857
     11 O1         -4.5305   -3.9166    1.1351 O.2       1 <0>        -0.9487
     12 O2         -2.4575   -3.2785    2.3594 O.2       1 <0>        -0.9513
     13 C9         -4.3122   -1.5392    2.0599 C.ar      1 <0>        -0.6554
     14 C10        -3.6268   -0.6648    2.8842 C.ar      1 <0>        -0.0321
     15 C11        -4.2520    0.4668    3.3664 C.ar      1 <0>        -0.0843
     16 C12        -5.5778    0.7282    3.0211 C.ar      1 <0>        -0.0550
     17 C13        -6.2636   -0.1572    2.1896 C.ar      1 <0>        -0.0796
     18 C14        -5.6257   -1.2825    1.7093 C.ar      1 <0>        -0.0358
     19 C15        -6.2550    1.9410    3.5357 C.2       1 <0>         0.5286
     20 O3         -5.6536    2.7128    4.2623 O.2       1 <0>        -0.5212
     21 N2         -7.5256    2.1889    3.2031 N.2       1 <0>        -0.6011
     22 C16        -8.1332    3.2770    3.6648 C.2       1 <0>         0.3924
     23 N3         -9.4096    3.6786    3.4352 N.pl3     1 <0>        -0.4886
     24 C17        -9.8741    4.8507    4.0058 C.ar      1 <0>         0.0924
     25 C18       -11.1435    5.4466    3.9022 C.ar      1 <0>         0.1458
     26 C19       -11.4162    6.6322    4.5532 C.ar      1 <0>        -0.1745
     27 C20       -10.4535    7.2641    5.3223 C.ar      1 <0>        -0.0737
     28 C21        -9.1974    6.6961    5.4390 C.ar      1 <0>        -0.0726
     29 C22        -8.9223    5.5139    4.7906 C.ar      1 <0>        -0.1666
     30 S2         -7.4978    4.4638    4.6710 S.3       1 <0>         0.2226
     31 O4        -12.1097    4.8500    3.1543 O.3       1 <0>        -0.3140
     32 C23       -13.3776    5.5060    3.0896 C.3       1 <0>         0.0522
     33 C24       -14.3284    4.6924    2.2093 C.3       1 <0>        -0.1538
     34 C25       -10.2920    2.8742    2.5862 C.3       1 <0>         0.2140
     35 C26       -11.0119    1.8944    3.4160 C.1       1 <0>        -0.2088
     36 C27       -11.5861    1.1130    4.0778 C.1       1 <0>        -0.1617
     37 H1          1.0039    1.9031    0.0027 H         1 <0>         0.0557
     38 H2         -0.5459    1.8868   -0.8726 H         1 <0>         0.0531
     39 H3         -0.5289    1.8773    0.9072 H         1 <0>         0.0543
     40 H4          0.5123   -0.3556   -0.8948 H         1 <0>         0.0648
     41 H5          0.5293   -0.3651    0.8851 H         1 <0>         0.0662
     42 H6         -1.9435   -0.1821    0.9097 H         1 <0>         0.0642
     43 H7         -1.9605   -0.1726   -0.8702 H         1 <0>         0.0696
     44 H8         -0.9024   -2.4150   -0.8923 H         1 <0>         0.0876
     45 H9         -0.8854   -2.4246    0.8875 H         1 <0>         0.0950
     46 H10        -4.5950   -2.6631   -1.0440 H         1 <0>         0.0818
     47 H11        -3.2429   -1.9094   -1.9226 H         1 <0>         0.0824
     48 H12        -2.1169   -4.1130   -2.0800 H         1 <0>         0.0683
     49 H13        -3.4690   -4.8667   -1.2014 H         1 <0>         0.0719
     50 H14        -5.0282   -4.1614   -2.9959 H         1 <0>         0.0651
     51 H15        -3.6760   -3.4078   -3.8745 H         1 <0>         0.0627
     52 H16        -2.5500   -5.6114   -4.0319 H         1 <0>         0.0536
     53 H17        -3.9021   -6.3651   -3.1533 H         1 <0>         0.0555
     54 H18        -4.1693   -5.6673   -4.7688 H         1 <0>         0.0549
     55 H19        -2.6003   -0.8685    3.1512 H         1 <0>         0.1459
     56 H20        -3.7160    1.1485    4.0101 H         1 <0>         0.1454
     57 H21        -7.2904    0.0398    1.9191 H         1 <0>         0.1480
     58 H22        -6.1541   -1.9663    1.0616 H         1 <0>         0.1446
     59 H23       -12.3969    7.0750    4.4611 H         1 <0>         0.1442
     60 H24       -10.6810    8.1920    5.8259 H         1 <0>         0.1459
     61 H25        -8.4367    7.1781    6.0352 H         1 <0>         0.1445
     62 H26       -13.7945    5.5906    4.0932 H         1 <0>         0.0668
     63 H27       -13.2505    6.5013    2.6639 H         1 <0>         0.0676
     64 H28       -14.4556    3.6971    2.6351 H         1 <0>         0.0676
     65 H29       -15.2956    5.1927    2.1600 H         1 <0>         0.0824
     66 H30       -13.9115    4.6077    1.2058 H         1 <0>         0.0674
     67 H31       -11.0099    3.5258    2.0882 H         1 <0>         0.1263
     68 H32        -9.6974    2.3497    1.8382 H         1 <0>         0.1214
     69 H33       -12.0996    0.4141    4.6697 H         1 <0>         0.2205
@<TRIPOS>BOND
     1    1    2 1
     2    1   37 1
     3    1   38 1
     4    1   39 1
     5    2    3 1
     6    2   40 1
     7    2   41 1
     8    3    4 1
     9    3   42 1
    10    3   43 1
    11    4    5 1
    12    4   44 1
    13    4   45 1
    14    5    6 1
    15    5   10 1
    16    6    7 1
    17    6   46 1
    18    6   47 1
    19    7    8 1
    20    7   48 1
    21    7   49 1
    22    8    9 1
    23    8   50 1
    24    8   51 1
    25    9   52 1
    26    9   53 1
    27    9   54 1
    28   10   11 2
    29   10   12 2
    30   10   13 1
    31   13   18 ar
    32   13   14 ar
    33   14   15 ar
    34   14   55 1
    35   15   16 ar
    36   15   56 1
    37   16   17 ar
    38   16   19 1
    39   17   18 ar
    40   17   57 1
    41   18   58 1
    42   19   20 2
    43   19   21 1
    44   21   22 2
    45   22   30 1
    46   22   23 1
    47   23   24 1
    48   23   34 1
    49   24   29 ar
    50   24   25 ar
    51   25   26 ar
    52   25   31 1
    53   26   27 ar
    54   26   59 1
    55   27   28 ar
    56   27   60 1
    57   28   29 ar
    58   28   61 1
    59   29   30 1
    60   31   32 1
    61   32   33 1
    62   32   62 1
    63   32   63 1
    64   33   64 1
    65   33   65 1
    66   33   66 1
    67   34   35 1
    68   34   67 1
    69   34   68 1
    70   35   36 3
    71   36   69 1
