@<TRIPOS>MOLECULE
ZINC00669016
   46    48     0     0     0
SMALL
USER_CHARGES
1-[4-[(2-bromophenoxy)methyl]benzoyl]amino-3-(3-chlorophenyl)-urea
@<TRIPOS>ATOM
      1 C1         -4.8651    4.0741    0.5683 C.ar      1 <0>        -0.0632
      2 C2         -5.3295    4.3250    1.8464 C.ar      1 <0>        -0.1511
      3 C3         -4.5975    3.9119    2.9440 C.ar      1 <0>        -0.0524
      4 C4         -3.3991    3.2463    2.7660 C.ar      1 <0>        -0.1263
      5 C5         -2.9314    2.9932    1.4840 C.ar      1 <0>         0.1551
      6 C6         -3.6655    3.4140    0.3848 C.ar      1 <0>        -0.2050
      7 O1         -1.7534    2.3389    1.3060 O.3       1 <0>        -0.2943
      8 C7         -1.3340    2.1130   -0.0413 C.3       1 <0>         0.0942
      9 C8         -0.0170    1.3805   -0.0413 C.ar      1 <0>        -0.0638
     10 C9          1.1682    2.0944   -0.0413 C.ar      1 <0>        -0.0966
     11 C10         2.3772    1.4300   -0.0470 C.ar      1 <0>        -0.0895
     12 C11         2.4031    0.0345   -0.0528 C.ar      1 <0>        -0.1189
     13 C12         1.2038   -0.6797   -0.0527 C.ar      1 <0>        -0.0534
     14 C13         0.0016   -0.0030   -0.0469 C.ar      1 <0>        -0.0959
     15 C14         3.6951   -0.6842   -0.0584 C.2       1 <0>         0.5654
     16 O2          3.7146   -1.8995   -0.0630 O.2       1 <0>        -0.5179
     17 N1          4.8514    0.0083   -0.0585 N.am      1 <0>        -0.5295
     18 N2          6.0757   -0.6727   -0.0639 N.am      1 <0>        -0.5214
     19 C15         7.2320    0.0198   -0.0639 C.2       1 <0>         0.7142
     20 O3          8.2946   -0.5712   -0.0686 O.2       1 <0>        -0.5449
     21 N3          7.2104    1.3674   -0.0588 N.am      1 <0>        -0.6827
     22 C16         8.4072    2.0860    0.0393 C.ar      1 <0>         0.1693
     23 C17         8.4428    3.2866    0.7367 C.ar      1 <0>        -0.1400
     24 C18         9.6264    3.9911    0.8370 C.ar      1 <0>        -0.0857
     25 C19        10.7735    3.5083    0.2343 C.ar      1 <0>        -0.1230
     26 C20        10.7407    2.3154   -0.4662 C.ar      1 <0>        -0.0156
     27 C21         9.5599    1.6030   -0.5651 C.ar      1 <0>        -0.1123
     28 Cl1        12.1829    1.7132   -1.2219 Cl        1 <0>        -0.0607
     29 Br1        -2.3977    2.6820    4.2676 Br        1 <0>        -0.0346
     30 H1         -5.4388    4.3982   -0.2874 H         1 <0>         0.1332
     31 H2         -6.2656    4.8448    1.9874 H         1 <0>         0.1346
     32 H3         -4.9621    4.1096    3.9412 H         1 <0>         0.1398
     33 H4         -3.3015    3.2221   -0.6137 H         1 <0>         0.1366
     34 H5         -1.2177    3.0695   -0.5509 H         1 <0>         0.0789
     35 H6         -2.0829    1.5139   -0.5593 H         1 <0>         0.0792
     36 H7          1.1468    3.1742   -0.0369 H         1 <0>         0.1360
     37 H8          3.3016    1.9884   -0.0467 H         1 <0>         0.1268
     38 H9          1.2170   -1.7596   -0.0568 H         1 <0>         0.1445
     39 H10        -0.9270   -0.5544   -0.0465 H         1 <0>         0.1374
     40 H11         4.8358    0.9782   -0.0548 H         1 <0>         0.4185
     41 H12         6.0912   -1.6425   -0.0675 H         1 <0>         0.4495
     42 H13         6.3653    1.8392   -0.1231 H         1 <0>         0.4033
     43 H14         7.5463    3.6670    1.2037 H         1 <0>         0.1330
     44 H15         9.6550    4.9226    1.3827 H         1 <0>         0.1393
     45 H16        11.6967    4.0636    0.3101 H         1 <0>         0.1368
     46 H17         9.5344    0.6718   -1.1115 H         1 <0>         0.1530
@<TRIPOS>BOND
     1    1    6 ar
     2    1    2 ar
     3    1   30 1
     4    2    3 ar
     5    2   31 1
     6    3    4 ar
     7    3   32 1
     8    4    5 ar
     9    4   29 1
    10    5    6 ar
    11    5    7 1
    12    6   33 1
    13    7    8 1
    14    8    9 1
    15    8   34 1
    16    8   35 1
    17    9   14 ar
    18    9   10 ar
    19   10   11 ar
    20   10   36 1
    21   11   12 ar
    22   11   37 1
    23   12   13 ar
    24   12   15 1
    25   13   14 ar
    26   13   38 1
    27   14   39 1
    28   15   16 2
    29   15   17 am
    30   17   18 1
    31   17   40 1
    32   18   19 am
    33   18   41 1
    34   19   20 2
    35   19   21 am
    36   21   22 1
    37   21   42 1
    38   22   27 ar
    39   22   23 ar
    40   23   24 ar
    41   23   43 1
    42   24   25 ar
    43   24   44 1
    44   25   26 ar
    45   25   45 1
    46   26   27 ar
    47   26   28 1
    48   27   46 1
