@<TRIPOS>MOLECULE
ZINC40937818
   43    45     0     0     0
SMALL
USER_CHARGES

@<TRIPOS>ATOM
      1 C1         -0.0125    1.3360    0.5012 C.ar      1 <0>        -0.1575
      2 C2          1.1019    2.0836    0.1560 C.ar      1 <0>        -0.0525
      3 C3          2.2665    1.4589   -0.2476 C.ar      1 <0>        -0.2193
      4 C4          2.3283    0.0762   -0.3095 C.ar      1 <0>         0.1636
      5 C5          1.2019   -0.6866    0.0398 C.ar      1 <0>        -0.1237
      6 C6          0.0288   -0.0399    0.4463 C.ar      1 <0>        -0.0074
      7 C7          1.2540   -2.1522   -0.0220 C.2       1 <0>         0.0935
      8 C8          0.1974   -2.8490   -0.5130 C.2       1 <0>        -0.2356
      9 C9         -1.0263   -2.3586   -1.1779 C.2       1 <0>         0.5332
     10 O1         -1.2202   -1.1717   -1.3654 O.2       1 <0>        -0.4416
     11 N1         -1.9007   -3.2741   -1.5599 N.am      1 <0>        -0.5166
     12 C10        -1.6820   -4.5882   -1.3502 C.2       1 <0>         0.2914
     13 S1         -2.6837   -5.9126   -1.7669 S.2       1 <0>        -0.3334
     14 S2         -0.0914   -4.6130   -0.5392 S.3       1 <0>         0.0358
     15 C11        -3.1354   -2.8512   -2.2255 C.3       1 <0>         0.1060
     16 C12        -2.9073   -2.7982   -3.7375 C.3       1 <0>        -0.1920
     17 C13        -4.1773   -2.3632   -4.4221 C.2       1 <0>         0.5039
     18 O2         -5.1727   -2.1182   -3.7620 O.co2     1 <0>        -0.6929
     19 O3         -4.2095   -2.2562   -5.6362 O.co2     1 <0>        -0.6946
     20 O4          3.4717   -0.5382   -0.7062 O.3       1 <0>        -0.3079
     21 C14         4.5758    0.3028   -1.0462 C.3       1 <0>         0.1004
     22 C15         5.7479   -0.5495   -1.4595 C.ar      1 <0>        -0.0772
     23 C16         5.6316   -1.9270   -1.4684 C.ar      1 <0>        -0.0716
     24 C17         6.7060   -2.7092   -1.8473 C.ar      1 <0>        -0.1015
     25 C18         7.8989   -2.1140   -2.2185 C.ar      1 <0>        -0.0233
     26 C19         8.0157   -0.7358   -2.2101 C.ar      1 <0>        -0.0997
     27 C20         6.9382    0.0469   -1.8353 C.ar      1 <0>        -0.0197
     28 Cl1         7.0819    1.7770   -1.8304 Cl        1 <0>        -0.0518
     29 Cl2         9.2486   -3.0968   -2.6939 Cl        1 <0>        -0.0543
     30 H1         -0.9164    1.8343    0.8192 H         1 <0>         0.1302
     31 H2          1.0599    3.1617    0.2022 H         1 <0>         0.1291
     32 H3          3.1301    2.0496   -0.5155 H         1 <0>         0.1321
     33 H4         -0.8422   -0.6185    0.7167 H         1 <0>         0.1302
     34 H5          2.1330   -2.6763    0.3231 H         1 <0>         0.1559
     35 H6         -3.9304   -3.5628   -2.0027 H         1 <0>         0.1144
     36 H7         -3.4215   -1.8626   -1.8664 H         1 <0>         0.1047
     37 H8         -2.1123   -2.0866   -3.9603 H         1 <0>         0.0608
     38 H9         -2.6212   -3.7868   -4.0966 H         1 <0>         0.0679
     39 H10         4.2936    0.9572   -1.8710 H         1 <0>         0.0877
     40 H11         4.8524    0.9065   -0.1818 H         1 <0>         0.0876
     41 H12         4.7008   -2.3920   -1.1789 H         1 <0>         0.1527
     42 H13         6.6148   -3.7853   -1.8535 H         1 <0>         0.1450
     43 H14         8.9464   -0.2708   -2.4997 H         1 <0>         0.1477
@<TRIPOS>BOND
     1    1    6 ar
     2    1    2 ar
     3    1   30 1
     4    2    3 ar
     5    2   31 1
     6    3    4 ar
     7    3   32 1
     8    4    5 ar
     9    4   20 1
    10    5    6 ar
    11    5    7 1
    12    6   33 1
    13    7    8 2
    14    7   34 1
    15    8   14 1
    16    8    9 1
    17    9   10 2
    18    9   11 am
    19   11   12 1
    20   11   15 1
    21   12   13 2
    22   12   14 1
    23   15   16 1
    24   15   35 1
    25   15   36 1
    26   16   17 1
    27   16   37 1
    28   16   38 1
    29   17   18 2
    30   17   19 1
    31   20   21 1
    32   21   22 1
    33   21   39 1
    34   21   40 1
    35   22   27 ar
    36   22   23 ar
    37   23   24 ar
    38   23   41 1
    39   24   25 ar
    40   24   42 1
    41   25   26 ar
    42   25   29 1
    43   26   27 ar
    44   26   43 1
    45   27   28 1
