@<TRIPOS>MOLECULE
ZINC02074220
   71    74     0     0     0
SMALL
USER_CHARGES
propyl (4R,7S)-7-(3,4-dimethoxyphenyl)-4-(4-methoxycarbonylphenyl)-2-methyl-5-oxo-4,6,7,8-tetrahydro-1H-quinoline-3-carboxylate
@<TRIPOS>ATOM
      1 C1         -5.5048   -1.6409    2.1707 C.3       1 <0>        -0.1529
      2 C2         -4.1411   -0.9547    2.2726 C.3       1 <0>        -0.1229
      3 C3         -3.3890   -1.1156    0.9500 C.3       1 <0>         0.0596
      4 O1         -2.1154   -0.4747    1.0452 O.3       1 <0>        -0.3448
      5 C4         -1.3214   -0.5247   -0.0448 C.2       1 <0>         0.5344
      6 O2         -1.7016   -1.0975   -1.0488 O.2       1 <0>        -0.4988
      7 C5         -0.0470    0.0889   -0.0203 C.2       1 <0>        -0.2342
      8 C6          0.0437    1.4248   -0.1382 C.2       1 <0>         0.1940
      9 N1          1.2646    2.0396   -0.1261 N.pl3     1 <0>        -0.6454
     10 C7          2.4051    1.3306   -0.3935 C.2       1 <0>         0.2282
     11 C8          2.4168   -0.0147   -0.2835 C.2       1 <0>        -0.2816
     12 C9          1.1774   -0.7642    0.1363 C.3       1 <0>         0.0830
     13 H1          1.0652   -1.6493   -0.5072 H         1 <0>         0.0934
     14 C10         1.3136   -1.1738    1.5801 C.ar      1 <0>        -0.0305
     15 C11         1.4500   -0.2069    2.5604 C.ar      1 <0>        -0.1144
     16 C12         1.5694   -0.5747    3.8846 C.ar      1 <0>        -0.0625
     17 C13         1.5638   -1.9266    4.2335 C.ar      1 <0>        -0.1308
     18 C14         1.4315   -2.8973    3.2386 C.ar      1 <0>        -0.0512
     19 C15         1.3072   -2.5154    1.9189 C.ar      1 <0>        -0.1131
     20 C16         1.6978   -2.3282    5.6488 C.2       1 <0>         0.5084
     21 O3          1.6930   -3.5052    5.9492 O.2       1 <0>        -0.5055
     22 O4          1.8253   -1.3892    6.6062 O.3       1 <0>        -0.3559
     23 C17         1.9524   -1.8565    7.9751 C.3       1 <0>         0.0328
     24 C18         3.5814   -0.7545   -0.5539 C.2       1 <0>         0.4033
     25 O5          3.5542   -1.9657   -0.4605 O.2       1 <0>        -0.4647
     26 C19         4.8608   -0.0731   -0.9569 C.3       1 <0>        -0.1599
     27 C20         4.8883    1.3338   -0.3503 C.3       1 <0>        -0.0307
     28 H2          4.9179    1.2783    0.7479 H         1 <0>         0.0925
     29 C21         3.6402    2.0872   -0.8155 C.3       1 <0>        -0.0892
     30 C22         6.1226    2.0648   -0.8121 C.ar      1 <0>        -0.0806
     31 C23         6.3400    2.2665   -2.1624 C.ar      1 <0>        -0.1097
     32 C24         7.4707    2.9365   -2.5911 C.ar      1 <0>        -0.1693
     33 C25         8.3889    3.4080   -1.6666 C.ar      1 <0>         0.1009
     34 C26         8.1698    3.2053   -0.3074 C.ar      1 <0>         0.1029
     35 C27         7.0320    2.5372    0.1157 C.ar      1 <0>        -0.1636
     36 O6          9.0681    3.6661    0.6038 O.3       1 <0>        -0.3054
     37 C28         8.7780    3.4219    1.9815 C.3       1 <0>         0.0219
     38 O7          9.5019    4.0669   -2.0867 O.3       1 <0>        -0.3061
     39 C29         9.6614    4.2378   -3.4964 C.3       1 <0>         0.0222
     40 C30        -1.2082    2.2496   -0.2908 C.3       1 <0>        -0.1370
     41 H3         -6.0455   -1.5252    3.1216 H         1 <0>         0.0660
     42 H4         -5.3620   -2.7106    1.9579 H         1 <0>         0.0591
     43 H5         -6.0873   -1.1802    1.3593 H         1 <0>         0.0585
     44 H6         -4.2839    0.1150    2.4854 H         1 <0>         0.0734
     45 H7         -3.5585   -1.4153    3.0840 H         1 <0>         0.0746
     46 H8         -3.2462   -2.1853    0.7372 H         1 <0>         0.0687
     47 H9         -3.9715   -0.6550    0.1385 H         1 <0>         0.0679
     48 H10         1.3373    3.1137    0.0999 H         1 <0>         0.4453
     49 H11         1.4586    0.8384    2.2887 H         1 <0>         0.1228
     50 H12         1.6714    0.1812    4.6492 H         1 <0>         0.1356
     51 H13         1.4267   -3.9448    3.5016 H         1 <0>         0.1370
     52 H14         1.2052   -3.2652    1.1483 H         1 <0>         0.1321
     53 H15         2.0484   -0.9931    8.6498 H         1 <0>         0.1049
     54 H16         2.8455   -2.4924    8.0640 H         1 <0>         0.0652
     55 H17         1.0595   -2.4380    8.2484 H         1 <0>         0.0653
     56 H18         5.7181   -0.6540   -0.5861 H         1 <0>         0.1009
     57 H19         4.9105   -0.0055   -2.0537 H         1 <0>         0.1040
     58 H20         3.6568    2.1800   -1.9115 H         1 <0>         0.1058
     59 H21         3.6287    3.0897   -0.3628 H         1 <0>         0.0947
     60 H22         5.6251    1.8996   -2.8840 H         1 <0>         0.1278
     61 H23         7.6382    3.0928   -3.6465 H         1 <0>         0.1366
     62 H24         6.8578    2.3819    1.1702 H         1 <0>         0.1365
     63 H25         9.5797    3.8439    2.6054 H         1 <0>         0.1034
     64 H26         8.7102    2.3378    2.1554 H         1 <0>         0.0569
     65 H27         7.8208    3.8960    2.2443 H         1 <0>         0.0560
     66 H28        10.5960    4.7824   -3.6963 H         1 <0>         0.1032
     67 H29         8.8109    4.8104   -3.8949 H         1 <0>         0.0562
     68 H30         9.7001    3.2521   -3.9832 H         1 <0>         0.0567
     69 H31        -0.9390    3.3130   -0.3726 H         1 <0>         0.0826
     70 H32        -1.8542    2.1014    0.5871 H         1 <0>         0.0965
     71 H33        -1.7452    1.9364   -1.1983 H         1 <0>         0.0892
@<TRIPOS>BOND
     1    1    2 1
     2    1   41 1
     3    1   42 1
     4    1   43 1
     5    2    3 1
     6    2   44 1
     7    2   45 1
     8    3    4 1
     9    3   46 1
    10    3   47 1
    11    4    5 1
    12    5    6 2
    13    5    7 1
    14    7   12 1
    15    7    8 2
    16    8    9 1
    17    8   40 1
    18    9   10 1
    19    9   48 1
    20   10   29 1
    21   10   11 2
    22   11   12 1
    23   11   24 1
    24   12   13 1
    25   12   14 1
    26   14   19 ar
    27   14   15 ar
    28   15   16 ar
    29   15   49 1
    30   16   17 ar
    31   16   50 1
    32   17   18 ar
    33   17   20 1
    34   18   19 ar
    35   18   51 1
    36   19   52 1
    37   20   21 2
    38   20   22 1
    39   22   23 1
    40   23   53 1
    41   23   54 1
    42   23   55 1
    43   24   25 2
    44   24   26 1
    45   26   27 1
    46   26   56 1
    47   26   57 1
    48   27   28 1
    49   27   29 1
    50   27   30 1
    51   29   58 1
    52   29   59 1
    53   30   35 ar
    54   30   31 ar
    55   31   32 ar
    56   31   60 1
    57   32   33 ar
    58   32   61 1
    59   33   34 ar
    60   33   38 1
    61   34   35 ar
    62   34   36 1
    63   35   62 1
    64   36   37 1
    65   37   63 1
    66   37   64 1
    67   37   65 1
    68   38   39 1
    69   39   66 1
    70   39   67 1
    71   39   68 1
    72   40   69 1
    73   40   70 1
    74   40   71 1
