@<TRIPOS>MOLECULE
ZINC39690436
   47    50     0     0     0
SMALL
USER_CHARGES

@<TRIPOS>ATOM
      1 C1         -0.2537    1.4874   -0.0865 C.3       1 <0>        -0.1153
      2 C2         -0.1191   -0.0132   -0.0543 C.ar      1 <0>        -0.0606
      3 C3          0.1924   -0.7038   -1.2116 C.ar      1 <0>        -0.1422
      4 C4          0.3164   -2.0807   -1.1867 C.ar      1 <0>        -0.0879
      5 C5          0.1295   -2.7713   -0.0052 C.ar      1 <0>        -0.1626
      6 C6         -0.1829   -2.0809    1.1590 C.ar      1 <0>         0.1651
      7 C7         -0.3012   -0.6966    1.1315 C.ar      1 <0>        -0.1254
      8 C8         -0.6340    0.0573    2.3932 C.3       1 <0>        -0.1151
      9 N1         -0.3726   -2.7762    2.3559 N.pl3     1 <0>        -0.5998
     10 C9         -0.3940   -4.1664    2.3564 C.2       1 <0>         0.3285
     11 N2         -0.1622   -5.0060    1.3662 N.2       1 <0>        -0.3519
     12 N3         -0.2373   -6.3619    1.5863 N.2       1 <0>        -0.2804
     13 C10        -0.5408   -6.8159    2.7875 C.2       1 <0>         0.0447
     14 S1         -0.7349   -5.2927    3.7003 S.3       1 <0>         0.0251
     15 S2         -0.7045   -8.4797    3.3439 S.3       1 <0>         0.0855
     16 C11        -0.3550   -9.4728    1.8667 C.3       1 <0>        -0.0984
     17 C12        -0.4626  -10.9366    2.2086 C.2       1 <0>         0.0132
     18 C13        -1.5869  -11.6247    1.9330 C.2       1 <0>        -0.2040
     19 C14        -1.6895  -13.0429    2.2643 C.2       1 <0>         0.5345
     20 O1         -2.7174  -13.6494    2.0065 O.2       1 <0>        -0.4798
     21 N4         -0.6715  -13.6861    2.8463 N.2       1 <0>        -0.5655
     22 C15         0.4490  -13.0814    3.1421 C.2       1 <0>         0.2935
     23 C16         0.6741  -11.6506    2.8514 C.2       1 <0>        -0.2348
     24 C17         1.8684  -11.1264    3.1923 C.2       1 <0>         0.0649
     25 C18         2.8808  -12.0421    3.8383 C.3       1 <0>        -0.1356
     26 H1          3.7775  -12.1271    3.2245 H         1 <0>         0.1534
     27 S3          1.9610  -13.6320    3.9001 S.3       1 <0>         0.0271
     28 C19         3.2243  -11.5714    5.2281 C.2       1 <0>         0.5228
     29 O2          2.6409  -12.0383    6.1915 O.co2     1 <0>        -0.6407
     30 O3          4.0857  -10.7237    5.3891 O.co2     1 <0>        -0.6554
     31 C20         2.1830   -9.6749    2.9367 C.3       1 <0>        -0.1558
     32 H2          0.7158    1.9436    0.1140 H         1 <0>         0.0716
     33 H3         -0.6057    1.7996   -1.0697 H         1 <0>         0.0678
     34 H4         -0.9684    1.8045    0.6729 H         1 <0>         0.0683
     35 H5          0.3387   -0.1663   -2.1368 H         1 <0>         0.1224
     36 H6          0.5593   -2.6169   -2.0922 H         1 <0>         0.1267
     37 H7          0.2258   -3.8468    0.0134 H         1 <0>         0.1727
     38 H8         -1.7162    0.1450    2.4893 H         1 <0>         0.0726
     39 H9         -0.2353   -0.4802    3.2536 H         1 <0>         0.0579
     40 H10        -0.1913    1.0524    2.3494 H         1 <0>         0.0767
     41 H11        -0.4895   -2.2890    3.1865 H         1 <0>         0.4285
     42 H12        -1.0751   -9.2283    1.0858 H         1 <0>         0.1182
     43 H13         0.6527   -9.2554    1.5128 H         1 <0>         0.1287
     44 H14        -2.4200  -11.1230    1.4633 H         1 <0>         0.1481
     45 H15         1.4149   -9.0508    3.3933 H         1 <0>         0.1022
     46 H16         3.1534   -9.4318    3.3695 H         1 <0>         0.1011
     47 H17         2.2083   -9.4924    1.8624 H         1 <0>         0.0896
@<TRIPOS>BOND
     1    1    2 1
     2    1   32 1
     3    1   33 1
     4    1   34 1
     5    2    7 ar
     6    2    3 ar
     7    3    4 ar
     8    3   35 1
     9    4    5 ar
    10    4   36 1
    11    5    6 ar
    12    5   37 1
    13    6    7 ar
    14    6    9 1
    15    7    8 1
    16    8   38 1
    17    8   39 1
    18    8   40 1
    19    9   10 1
    20    9   41 1
    21   10   14 1
    22   10   11 2
    23   11   12 1
    24   12   13 2
    25   13   14 1
    26   13   15 1
    27   15   16 1
    28   16   17 1
    29   16   42 1
    30   16   43 1
    31   17   23 1
    32   17   18 2
    33   18   19 1
    34   18   44 1
    35   19   20 2
    36   19   21 1
    37   21   22 2
    38   22   27 1
    39   22   23 1
    40   23   24 2
    41   24   25 1
    42   24   31 1
    43   25   26 1
    44   25   27 1
    45   25   28 1
    46   28   29 2
    47   28   30 1
    48   31   45 1
    49   31   46 1
    50   31   47 1
