@<TRIPOS>MOLECULE
ZINC01473104
   50    53     0     0     0
SMALL
USER_CHARGES

@<TRIPOS>ATOM
      1 C1         -0.0187    1.5258    0.0104 C.3       1 <0>        -0.1539
      2 C2          0.0021   -0.0041    0.0020 C.3       1 <0>        -0.1170
      3 C3          0.7182   -0.4975   -1.2568 C.3       1 <0>        -0.1092
      4 H1          0.2444   -0.0644   -2.1377 H         1 <0>         0.0806
      5 C4          2.1873   -0.0730   -1.2073 C.3       1 <0>        -0.1602
      6 C5          0.6303   -2.0233   -1.3286 C.3       1 <0>         0.1087
      7 N1          1.2105   -2.4869   -2.5914 N.pl3     1 <0>        -0.4732
      8 C6          0.5394   -2.6604   -3.7853 C.ar      1 <0>         0.0573
      9 C7         -0.7769   -2.4824   -4.1893 C.ar      1 <0>        -0.1124
     10 C8         -1.1336   -2.7535   -5.4930 C.ar      1 <0>        -0.0951
     11 C9         -0.1865   -3.2029   -6.4024 C.ar      1 <0>        -0.1285
     12 C10         1.1131   -3.3842   -6.0226 C.ar      1 <0>        -0.0584
     13 C11         1.4980   -3.1149   -4.7065 C.ar      1 <0>         0.0425
     14 N2          2.6792   -3.1938   -4.0416 N.2       1 <0>        -0.4655
     15 C12         2.5116   -2.8208   -2.8064 C.2       1 <0>         0.2756
     16 C13         3.5995   -2.7697   -1.7648 C.3       1 <0>         0.1310
     17 O1          3.6733   -4.0276   -1.0910 O.3       1 <0>        -0.3038
     18 C14         4.6096   -4.1502   -0.1149 C.ar      1 <0>         0.1484
     19 C15         5.4265   -3.0981    0.1910 C.ar      1 <0>        -0.2223
     20 C16         6.3909   -3.2077    1.1886 C.ar      1 <0>        -0.0744
     21 C17         6.5487   -4.3648    1.8890 C.ar      1 <0>        -0.1425
     22 C18         5.7282   -5.4697    1.6051 C.ar      1 <0>        -0.0182
     23 C19         4.7417   -5.3615    0.5937 C.ar      1 <0>        -0.0684
     24 C20         3.9188   -6.4642    0.3131 C.ar      1 <0>        -0.0842
     25 C21         4.0753   -7.6184    1.0177 C.ar      1 <0>        -0.1275
     26 C22         5.0419   -7.7237    2.0161 C.ar      1 <0>        -0.1014
     27 C23         5.8642   -6.6792    2.3081 C.ar      1 <0>        -0.1166
     28 H2          1.0039    1.9031    0.0027 H         1 <0>         0.0582
     29 H3         -0.5459    1.8868   -0.8726 H         1 <0>         0.0550
     30 H4         -0.5289    1.8773    0.9072 H         1 <0>         0.0582
     31 H5          0.5293   -0.3651    0.8851 H         1 <0>         0.0673
     32 H6         -1.0205   -0.3814    0.0098 H         1 <0>         0.0665
     33 H7          2.2499    1.0140   -1.1561 H         1 <0>         0.0699
     34 H8          2.6611   -0.5061   -0.3263 H         1 <0>         0.0606
     35 H9          2.6975   -0.4246   -2.1040 H         1 <0>         0.0558
     36 H10         1.1806   -2.4586   -0.4944 H         1 <0>         0.0953
     37 H11        -0.4142   -2.3300   -1.2744 H         1 <0>         0.0949
     38 H12        -1.5180   -2.1336   -3.4854 H         1 <0>         0.1223
     39 H13        -2.1572   -2.6155   -5.8087 H         1 <0>         0.1317
     40 H14        -0.4800   -3.4117   -7.4205 H         1 <0>         0.1314
     41 H15         1.8418   -3.7350   -6.7383 H         1 <0>         0.1307
     42 H16         4.5542   -2.5590   -2.2467 H         1 <0>         0.1013
     43 H17         3.3753   -1.9837   -1.0436 H         1 <0>         0.0943
     44 H18         5.3225   -2.1687   -0.3492 H         1 <0>         0.1275
     45 H19         7.0244   -2.3616    1.4106 H         1 <0>         0.1270
     46 H20         7.3022   -4.4332    2.6598 H         1 <0>         0.1296
     47 H21         3.1652   -6.3968   -0.4577 H         1 <0>         0.1297
     48 H22         3.4408   -8.4648    0.8001 H         1 <0>         0.1248
     49 H23         5.1454   -8.6506    2.5607 H         1 <0>         0.1254
     50 H24         6.6092   -6.7753    3.0841 H         1 <0>         0.1309
@<TRIPOS>BOND
     1    1    2 1
     2    1   28 1
     3    1   29 1
     4    1   30 1
     5    2    3 1
     6    2   31 1
     7    2   32 1
     8    3    4 1
     9    3    5 1
    10    3    6 1
    11    5   33 1
    12    5   34 1
    13    5   35 1
    14    6    7 1
    15    6   36 1
    16    6   37 1
    17    7   15 1
    18    7    8 1
    19    8   13 ar
    20    8    9 ar
    21    9   10 ar
    22    9   38 1
    23   10   11 ar
    24   10   39 1
    25   11   12 ar
    26   11   40 1
    27   12   13 ar
    28   12   41 1
    29   13   14 1
    30   14   15 2
    31   15   16 1
    32   16   17 1
    33   16   42 1
    34   16   43 1
    35   17   18 1
    36   18   23 ar
    37   18   19 ar
    38   19   20 ar
    39   19   44 1
    40   20   21 ar
    41   20   45 1
    42   21   22 ar
    43   21   46 1
    44   22   27 ar
    45   22   23 ar
    46   23   24 ar
    47   24   25 ar
    48   24   47 1
    49   25   26 ar
    50   25   48 1
    51   26   27 ar
    52   26   49 1
    53   27   50 1
