@<TRIPOS>MOLECULE
ZINC06195782
   67    70     0     0     0
SMALL
USER_CHARGES
methyl 4-(3-bromo-5-ethoxy-4-hydroxy-phenyl)-7-(3,4-dimethoxyphenyl)-2-methyl-5-oxo-4,6,7,8-tetrahydro-1H-quinoline-3-carboxylate
@<TRIPOS>ATOM
      1 C1          1.4913    1.4299    0.1963 C.3       1 <0>        -0.1519
      2 C2          1.2193   -0.0750    0.1487 C.3       1 <0>         0.0499
      3 O1         -0.1865   -0.3014    0.0287 O.3       1 <0>        -0.2998
      4 C3         -0.6010   -1.5954   -0.0273 C.ar      1 <0>         0.1189
      5 C4          0.3254   -2.6245    0.0320 C.ar      1 <0>        -0.1428
      6 C5         -0.0970   -3.9394   -0.0245 C.ar      1 <0>        -0.0544
      7 C6         -1.4432   -4.2319   -0.1408 C.ar      1 <0>        -0.1203
      8 C7         -2.3732   -3.2099   -0.2014 C.ar      1 <0>        -0.0805
      9 C8         -1.9563   -1.8892   -0.1384 C.ar      1 <0>         0.1057
     10 O2         -2.8696   -0.8828   -0.1914 O.3       1 <0>        -0.4715
     11 Br1        -4.2136   -3.6141   -0.3610 Br        1 <0>        -0.0214
     12 C9          0.9121   -5.0568    0.0411 C.3       1 <0>         0.0509
     13 H1          1.9117   -4.6314    0.1311 H         1 <0>         0.1192
     14 C10         0.6261   -5.9108    1.2505 C.3       1 <0>        -0.1732
     15 C11         0.0085   -7.1029    1.1233 C.2       1 <0>         0.2389
     16 C12        -0.2932   -7.9548    2.3313 C.3       1 <0>        -0.0884
     17 C13         0.7685   -7.7206    3.4054 C.3       1 <0>        -0.0376
     18 H2          1.7454   -8.0148    3.0217 H         1 <0>         0.0995
     19 C14         0.7829   -6.2304    3.7618 C.3       1 <0>        -0.1552
     20 C15         1.0241   -5.4297    2.5114 C.2       1 <0>         0.3761
     21 O3          1.5725   -4.3485    2.5920 O.2       1 <0>        -0.4376
     22 C16         0.4394   -8.5350    4.6300 C.ar      1 <0>        -0.0812
     23 C17        -0.7545   -8.3279    5.2956 C.ar      1 <0>        -0.1082
     24 C18        -1.0611   -9.0724    6.4194 C.ar      1 <0>        -0.1689
     25 C19        -0.1712  -10.0291    6.8805 C.ar      1 <0>         0.1045
     26 C20         1.0302  -10.2379    6.2102 C.ar      1 <0>         0.1034
     27 C21         1.3292   -9.4916    5.0817 C.ar      1 <0>        -0.1601
     28 O4          1.9069  -11.1758    6.6590 O.3       1 <0>        -0.3051
     29 C22         3.1202  -11.3355    5.9211 C.3       1 <0>         0.0246
     30 O5         -0.4711  -10.7621    7.9861 O.3       1 <0>        -0.3057
     31 C23        -1.7217  -10.4932    8.6232 C.3       1 <0>         0.0250
     32 N1         -0.3590   -7.5664   -0.1114 N.2       1 <0>        -0.5165
     33 C24         0.2101   -7.0566   -1.2448 C.2       1 <0>         0.2036
     34 C25         0.8331   -5.8668   -1.2196 C.2       1 <0>        -0.2535
     35 C26         1.4225   -5.3663   -2.4039 C.2       1 <0>         0.5133
     36 O6          1.4731   -6.0635   -3.4000 O.2       1 <0>        -0.5053
     37 O7          1.9285   -4.1156   -2.4294 O.3       1 <0>        -0.3515
     38 C27         2.5088   -3.6754   -3.6589 C.3       1 <0>         0.0354
     39 C28         0.1453   -7.8383   -2.5316 C.3       1 <0>        -0.1160
     40 H3          2.5637    1.6025    0.2879 H         1 <0>         0.0812
     41 H4          1.1253    1.8944   -0.7193 H         1 <0>         0.0670
     42 H5          0.9787    1.8647    1.0544 H         1 <0>         0.0680
     43 H6          1.7319   -0.5099   -0.7095 H         1 <0>         0.0655
     44 H7          1.5853   -0.5396    1.0642 H         1 <0>         0.0667
     45 H8          1.3778   -2.3989    0.1227 H         1 <0>         0.1452
     46 H9         -1.7693   -5.2605   -0.1846 H         1 <0>         0.1308
     47 H10        -3.0650   -0.5757   -1.0873 H         1 <0>         0.3915
     48 H11        -1.2726   -7.6879    2.7282 H         1 <0>         0.1069
     49 H12        -0.2930   -9.0061    2.0432 H         1 <0>         0.1200
     50 H13        -0.0974   -5.9749    4.1616 H         1 <0>         0.0994
     51 H14         1.5785   -6.0351    4.4808 H         1 <0>         0.1184
     52 H15        -1.4490   -7.5825    4.9371 H         1 <0>         0.1279
     53 H16        -1.9944   -8.9086    6.9375 H         1 <0>         0.1379
     54 H17         2.2594   -9.6543    4.5574 H         1 <0>         0.1384
     55 H18         3.7276  -12.1131    6.3845 H         1 <0>         0.1022
     56 H19         2.8866  -11.6201    4.8951 H         1 <0>         0.0564
     57 H20         3.6717  -10.3954    5.9208 H         1 <0>         0.0560
     58 H21        -2.5343  -10.6772    7.9204 H         1 <0>         0.0563
     59 H22        -1.8357  -11.1450    9.4894 H         1 <0>         0.1022
     60 H23        -1.7487   -9.4524    8.9456 H         1 <0>         0.0560
     61 H24        -0.2734   -5.6761    1.6191 H         1 <0>         0.1517
     62 H25         2.8762   -2.6558   -3.5427 H         1 <0>         0.0992
     63 H26         3.3370   -4.3319   -3.9254 H         1 <0>         0.0610
     64 H27         1.7556   -3.7027   -4.4463 H         1 <0>         0.0595
     65 H28         1.0657   -8.4086   -2.6569 H         1 <0>         0.0908
     66 H29        -0.7037   -8.5211   -2.4995 H         1 <0>         0.0725
     67 H30         0.0271   -7.1506   -3.3689 H         1 <0>         0.1094
@<TRIPOS>BOND
     1    1    2 1
     2    1   40 1
     3    1   41 1
     4    1   42 1
     5    2    3 1
     6    2   43 1
     7    2   44 1
     8    3    4 1
     9    4    9 ar
    10    4    5 ar
    11    5    6 ar
    12    5   45 1
    13    6    7 ar
    14    6   12 1
    15    7    8 ar
    16    7   46 1
    17    8    9 ar
    18    8   11 1
    19    9   10 1
    20   10   47 1
    21   12   13 1
    22   12   34 1
    23   12   14 1
    24   14   20 1
    25   14   15 1
    26   14   61 1
    27   15   16 1
    28   15   32 2
    29   16   17 1
    30   16   48 1
    31   16   49 1
    32   17   18 1
    33   17   19 1
    34   17   22 1
    35   19   20 1
    36   19   50 1
    37   19   51 1
    38   20   21 2
    39   22   27 ar
    40   22   23 ar
    41   23   24 ar
    42   23   52 1
    43   24   25 ar
    44   24   53 1
    45   25   26 ar
    46   25   30 1
    47   26   27 ar
    48   26   28 1
    49   27   54 1
    50   28   29 1
    51   29   55 1
    52   29   56 1
    53   29   57 1
    54   30   31 1
    55   31   58 1
    56   31   59 1
    57   31   60 1
    58   32   33 1
    59   33   39 1
    60   33   34 2
    61   34   35 1
    62   35   36 2
    63   35   37 1
    64   37   38 1
    65   38   62 1
    66   38   63 1
    67   38   64 1
    68   39   65 1
    69   39   66 1
    70   39   67 1
