@<TRIPOS>MOLECULE
ZINC39765384
   58    61     0     0     0
SMALL
USER_CHARGES

@<TRIPOS>ATOM
      1 C1         -0.0122    1.5386    0.0792 C.3       1 <0>        -0.1375
      2 C2          0.0080    0.0090    0.0533 C.3       1 <0>        -0.0571
      3 C3         -1.4272   -0.5242    0.0731 C.3       1 <0>        -0.0713
      4 C4         -1.3954   -2.0329    0.1040 C.2       1 <0>         0.2963
      5 C5         -0.3440   -2.6964    0.7459 C.2       1 <0>        -0.3828
      6 C6         -0.3484   -4.2088    0.8226 C.3       1 <0>         0.0714
      7 H1         -0.8857   -4.5296    1.7151 H         1 <0>         0.0569
      8 C7         -1.0465   -4.7513   -0.4201 C.3       1 <0>        -0.2109
      9 H2         -0.4072   -4.5582   -1.2815 H         1 <0>         0.1139
     10 C8         -2.3456   -4.0219   -0.6263 C.2       1 <0>         0.4856
     11 N1         -3.4451   -4.6817   -0.9262 N.2       1 <0>        -0.6174
     12 C9         -3.4864   -6.0135   -0.9547 C.2       1 <0>         0.4309
     13 N2         -2.4413   -6.7642   -0.6281 N.2       1 <0>        -0.6873
     14 C10        -1.2787   -6.2266   -0.3309 C.2       1 <0>         0.5152
     15 O1         -0.3689   -6.9552    0.0159 O.2       1 <0>        -0.4920
     16 S1         -4.9823   -6.8065   -1.4427 S.3       1 <0>        -0.0032
     17 C11        -4.5952   -8.5757   -1.3390 C.3       1 <0>        -0.0802
     18 C12        -5.8067   -9.3791   -1.7361 C.2       1 <0>        -0.1406
     19 C13        -5.7749  -10.1227   -2.8142 C.2       1 <0>        -0.1696
     20 N3         -2.3900   -2.7063   -0.4415 N.2       1 <0>        -0.6051
     21 C14         1.0689   -4.7186    0.8729 C.ar      1 <0>        -0.0189
     22 C15         1.9405   -4.4367   -0.1630 C.ar      1 <0>        -0.0664
     23 C16         3.2400   -4.9024   -0.1202 C.ar      1 <0>        -0.1858
     24 C17         3.6711   -5.6547    0.9651 C.ar      1 <0>         0.1890
     25 C18         2.7929   -5.9360    2.0039 C.ar      1 <0>        -0.1858
     26 C19         1.4964   -5.4625    1.9574 C.ar      1 <0>        -0.0463
     27 N4          4.9846   -6.1275    1.0114 N.pl3     1 <0>        -0.6479
     28 C20         5.8720   -5.9388   -0.1388 C.3       1 <0>         0.1035
     29 C21         5.4747   -6.8123    2.2102 C.3       1 <0>         0.0976
     30 C22         0.6820   -2.0182    1.3087 C.2       1 <0>         0.3433
     31 O2          1.6748   -2.7064    1.9014 O.3       1 <0>        -0.5693
     32 C23         0.7432   -0.5160    1.2897 C.3       1 <0>        -0.1231
     33 C24         0.7211   -0.4736   -1.2114 C.3       1 <0>        -0.1454
     34 H3          1.0105    1.9156    0.0796 H         1 <0>         0.0569
     35 H4         -0.5360    1.9100   -0.8017 H         1 <0>         0.0575
     36 H5         -0.5257    1.8801    0.9780 H         1 <0>         0.0564
     37 H6         -1.9416   -0.1525    0.9592 H         1 <0>         0.0897
     38 H7         -1.9524   -0.1892   -0.8214 H         1 <0>         0.0874
     39 H8         -3.7693   -8.8069   -2.0117 H         1 <0>         0.0967
     40 H9         -4.3121   -8.8263   -0.3167 H         1 <0>         0.1037
     41 H10        -6.7012   -9.3418   -1.1320 H         1 <0>         0.1182
     42 H11        -6.6432  -10.6985   -3.0988 H         1 <0>         0.1033
     43 H12        -4.8805  -10.1600   -3.4183 H         1 <0>         0.0999
     44 H13         1.6046   -3.8521   -1.0067 H         1 <0>         0.0978
     45 H14         3.9201   -4.6821   -0.9297 H         1 <0>         0.1052
     46 H15         3.1248   -6.5209    2.8490 H         1 <0>         0.1084
     47 H16         0.8144   -5.6771    2.7668 H         1 <0>         0.0999
     48 H17         6.4025   -4.9920   -0.0369 H         1 <0>         0.0381
     49 H18         6.5921   -6.7561   -0.1802 H         1 <0>         0.0562
     50 H19         5.2819   -5.9278   -1.0552 H         1 <0>         0.0634
     51 H20         4.6551   -6.9375    2.9178 H         1 <0>         0.0758
     52 H21         5.8691   -7.7903    1.9343 H         1 <0>         0.0454
     53 H22         6.2646   -6.2186    2.6704 H         1 <0>         0.0416
     54 H23         1.7844   -0.1951    1.2569 H         1 <0>         0.0815
     55 H24         0.2696   -0.1217    2.1888 H         1 <0>         0.0859
     56 H25         1.7443   -0.0977   -1.2175 H         1 <0>         0.0547
     57 H26         0.7344   -1.5634   -1.2276 H         1 <0>         0.0618
     58 H27         0.1929   -0.1035   -2.0900 H         1 <0>         0.0546
@<TRIPOS>BOND
     1    1    2 1
     2    1   34 1
     3    1   35 1
     4    1   36 1
     5    2   32 1
     6    2    3 1
     7    2   33 1
     8    3    4 1
     9    3   37 1
    10    3   38 1
    11    4   20 2
    12    4    5 1
    13    5    6 1
    14    5   30 2
    15    6    7 1
    16    6    8 1
    17    6   21 1
    18    8    9 1
    19    8   14 1
    20    8   10 1
    21   10   11 2
    22   10   20 1
    23   11   12 1
    24   12   13 2
    25   12   16 1
    26   13   14 1
    27   14   15 2
    28   16   17 1
    29   17   18 1
    30   17   39 1
    31   17   40 1
    32   18   19 2
    33   18   41 1
    34   19   42 1
    35   19   43 1
    36   21   26 ar
    37   21   22 ar
    38   22   23 ar
    39   22   44 1
    40   23   24 ar
    41   23   45 1
    42   24   25 ar
    43   24   27 1
    44   25   26 ar
    45   25   46 1
    46   26   47 1
    47   27   28 1
    48   27   29 1
    49   28   48 1
    50   28   49 1
    51   28   50 1
    52   29   51 1
    53   29   52 1
    54   29   53 1
    55   30   31 1
    56   30   32 1
    57   32   54 1
    58   32   55 1
    59   33   56 1
    60   33   57 1
    61   33   58 1
