@<TRIPOS>MOLECULE
ZINC36024703
   72    74     0     0     0
SMALL
USER_CHARGES

@<TRIPOS>ATOM
      1 C1          1.0383   -0.6300   -1.6045 C.3       1 <0>        -0.1527
      2 C2          0.3294   -0.7436   -0.2534 C.3       1 <0>         0.0608
      3 O1         -0.9380   -1.3789   -0.4324 O.3       1 <0>        -0.3481
      4 C3         -1.6952   -1.5570    0.6703 C.2       1 <0>         0.5434
      5 O2         -1.2889   -1.1823    1.7543 O.2       1 <0>        -0.4801
      6 C4         -2.9613   -2.1792    0.5659 C.2       1 <0>        -0.2623
      7 C5         -3.0712   -3.5147    0.3981 C.2       1 <0>         0.2285
      8 N1         -4.2941   -4.1141    0.2980 N.am      1 <0>        -0.5267
      9 C6         -5.4544   -3.4483    0.3556 C.2       1 <0>         0.7067
     10 O3         -6.4944   -4.0698    0.2566 O.2       1 <0>        -0.5537
     11 N2         -5.5068   -2.1117    0.5201 N.am      1 <0>        -0.7129
     12 C7         -4.2404   -1.3707    0.6450 C.3       1 <0>         0.2453
     13 H1         -4.2139   -0.6216   -0.1464 H         1 <0>         0.0945
     14 C8         -4.2499   -0.6442    1.9653 C.ar      1 <0>        -0.0977
     15 C9         -4.8325   -1.2311    3.0731 C.ar      1 <0>        -0.0849
     16 C10        -4.8413   -0.5649    4.2841 C.ar      1 <0>        -0.1127
     17 C11        -4.2675    0.6887    4.3884 C.ar      1 <0>        -0.1000
     18 C12        -3.6848    1.2764    3.2817 C.ar      1 <0>        -0.1053
     19 C13        -3.6706    0.6075    2.0704 C.ar      1 <0>        -0.0126
     20 Cl1        -2.9329    1.3423    0.6813 Cl        1 <0>        -0.0670
     21 C14        -4.3390   -5.5672    0.1170 C.3       1 <0>         0.1459
     22 C15        -4.3842   -6.2402    1.4646 C.2       1 <0>        -0.1710
     23 C16        -5.3468   -7.0838    1.7435 C.2       1 <0>        -0.1708
     24 C17        -1.8241   -4.3570    0.3196 C.3       1 <0>         0.0756
     25 N3         -1.7437   -5.2244    1.5024 N.3       1 <0>        -0.5265
     26 C18        -1.5619   -4.4313    2.7255 C.3       1 <0>         0.0365
     27 C19        -1.6644   -5.3512    3.9467 C.3       1 <0>         0.1195
     28 N4         -0.7131   -6.4601    3.7775 N.am      1 <0>        -0.6291
     29 C20        -0.7432   -7.2164    2.5164 C.3       1 <0>         0.1692
     30 H2         -1.6676   -7.7907    2.4558 H         1 <0>         0.0806
     31 C21        -0.6770   -6.2230    1.3514 C.3       1 <0>         0.0430
     32 C22         0.4559   -8.1648    2.4572 C.3       1 <0>        -0.1378
     33 C23         0.1625   -6.7752    4.7524 C.2       1 <0>         0.7088
     34 O4          0.8751   -7.7536    4.6366 O.2       1 <0>        -0.5780
     35 N5          0.2484   -6.0058    5.8556 N.am      1 <0>        -0.7446
     36 C24         1.2749   -6.2825    6.8635 C.3       1 <0>         0.1553
     37 C25         1.5849   -5.0015    7.6407 C.3       1 <0>        -0.1617
     38 C26         0.7656   -7.3543    7.8292 C.3       1 <0>        -0.1639
     39 H3          2.0051   -0.1454   -1.4679 H         1 <0>         0.0800
     40 H4          1.1868   -1.6259   -2.0218 H         1 <0>         0.0664
     41 H5          0.4281   -0.0377   -2.2863 H         1 <0>         0.0675
     42 H6          0.9397   -1.3359    0.4284 H         1 <0>         0.0651
     43 H7          0.1809    0.2524    0.1639 H         1 <0>         0.0688
     44 H8         -6.3586   -1.6493    0.5587 H         1 <0>         0.4340
     45 H9         -5.2812   -2.2101    2.9922 H         1 <0>         0.1258
     46 H10        -5.2969   -1.0236    5.1492 H         1 <0>         0.1295
     47 H11        -4.2750    1.2089    5.3348 H         1 <0>         0.1328
     48 H12        -3.2368    2.2557    3.3631 H         1 <0>         0.1340
     49 H13        -5.2288   -5.8350   -0.4529 H         1 <0>         0.0976
     50 H14        -3.4500   -5.8938   -0.4226 H         1 <0>         0.0960
     51 H15        -3.6230   -6.0269    2.2005 H         1 <0>         0.1343
     52 H16        -5.3792   -7.5661    2.7093 H         1 <0>         0.0969
     53 H17        -6.1080   -7.2970    1.0076 H         1 <0>         0.0954
     54 H18        -1.8568   -4.9715   -0.5801 H         1 <0>         0.1102
     55 H19        -0.9489   -3.7081    0.2847 H         1 <0>         0.0669
     56 H20        -0.5808   -3.9568    2.7088 H         1 <0>         0.0470
     57 H21        -2.3358   -3.6656    2.7808 H         1 <0>         0.0907
     58 H22        -1.4173   -4.7912    4.8487 H         1 <0>         0.0815
     59 H23        -2.6774   -5.7462    4.0236 H         1 <0>         0.0773
     60 H24        -0.8091   -6.7569    0.4103 H         1 <0>         0.0934
     61 H25         0.2918   -5.7236    1.3539 H         1 <0>         0.0457
     62 H26         0.3448   -8.9388    3.2166 H         1 <0>         0.0851
     63 H27         0.5049   -8.6274    1.4714 H         1 <0>         0.0469
     64 H28         1.3722   -7.6040    2.6413 H         1 <0>         0.0632
     65 H29        -0.3695   -5.2688    5.9822 H         1 <0>         0.3918
     66 H30         2.1807   -6.6373    6.3718 H         1 <0>         0.0865
     67 H31         0.6791   -4.6467    8.1325 H         1 <0>         0.0600
     68 H32         2.3486   -5.2074    8.3907 H         1 <0>         0.0745
     69 H33         1.9477   -4.2379    6.9528 H         1 <0>         0.0605
     70 H34        -0.1402   -6.9995    8.3210 H         1 <0>         0.0540
     71 H35         0.5448   -8.2669    7.2755 H         1 <0>         0.0624
     72 H36         1.5293   -7.5602    8.5792 H         1 <0>         0.0646
@<TRIPOS>BOND
     1    1    2 1
     2    1   39 1
     3    1   40 1
     4    1   41 1
     5    2    3 1
     6    2   42 1
     7    2   43 1
     8    3    4 1
     9    4    5 2
    10    4    6 1
    11    6   12 1
    12    6    7 2
    13    7    8 1
    14    7   24 1
    15    8    9 am
    16    8   21 1
    17    9   10 2
    18    9   11 am
    19   11   12 1
    20   11   44 1
    21   12   13 1
    22   12   14 1
    23   14   19 ar
    24   14   15 ar
    25   15   16 ar
    26   15   45 1
    27   16   17 ar
    28   16   46 1
    29   17   18 ar
    30   17   47 1
    31   18   19 ar
    32   18   48 1
    33   19   20 1
    34   21   22 1
    35   21   49 1
    36   21   50 1
    37   22   23 2
    38   22   51 1
    39   23   52 1
    40   23   53 1
    41   24   25 1
    42   24   54 1
    43   24   55 1
    44   25   31 1
    45   25   26 1
    46   26   27 1
    47   26   56 1
    48   26   57 1
    49   27   28 1
    50   27   58 1
    51   27   59 1
    52   28   29 1
    53   28   33 am
    54   29   30 1
    55   29   31 1
    56   29   32 1
    57   31   60 1
    58   31   61 1
    59   32   62 1
    60   32   63 1
    61   32   64 1
    62   33   34 2
    63   33   35 am
    64   35   36 1
    65   35   65 1
    66   36   37 1
    67   36   38 1
    68   36   66 1
    69   37   67 1
    70   37   68 1
    71   37   69 1
    72   38   70 1
    73   38   71 1
    74   38   72 1
