@<TRIPOS>MOLECULE
ZINC38682093
   48    51     0     0     0
SMALL
USER_CHARGES

@<TRIPOS>ATOM
      1 C1          0.2171    1.4568   -0.0917 C.3       1 <0>        -0.1437
      2 S1          0.1175   -0.3536   -0.1475 S.3       1 <0>        -0.1207
      3 C2         -1.6112   -0.6877   -0.0793 C.ar      1 <0>        -0.0810
      4 C3         -2.5210    0.3604   -0.0083 C.ar      1 <0>        -0.1307
      5 C4         -3.8749    0.0948    0.0451 C.ar      1 <0>        -0.0904
      6 C5         -4.3261   -1.2125    0.0279 C.ar      1 <0>        -0.0804
      7 C6         -3.4236   -2.2581   -0.0422 C.ar      1 <0>        -0.0811
      8 C7         -2.0685   -1.9999   -0.1021 C.ar      1 <0>        -0.0966
      9 C8         -5.8046   -1.4982    0.0863 C.3       1 <0>         0.0851
     10 H1         -6.3524   -0.5573    0.1380 H         1 <0>         0.1022
     11 C9         -6.1060   -2.3188    1.3124 C.ar      1 <0>        -0.1154
     12 C10        -6.1352   -1.7047    2.5520 C.ar      1 <0>        -0.0584
     13 C11        -6.4101   -2.4412    3.6872 C.ar      1 <0>        -0.1298
     14 C12        -6.6583   -3.8032    3.5871 C.ar      1 <0>         0.1185
     15 C13        -6.6295   -4.4210    2.3475 C.ar      1 <0>        -0.1199
     16 C14        -6.3525   -3.6787    1.2067 C.ar      1 <0>         0.1329
     17 O1         -6.3283   -4.2983    0.0009 O.3       1 <0>        -0.2422
     18 C15        -6.4512   -3.5769   -1.1257 C.2       1 <0>         0.4422
     19 C16        -6.2162   -2.2467   -1.1501 C.2       1 <0>        -0.2766
     20 C17        -6.3638   -1.5356   -2.3842 C.1       1 <0>         0.2718
     21 N1         -6.4809   -0.9714   -3.3633 N.1       1 <0>        -0.4423
     22 N2         -6.8247   -4.2103   -2.2847 N.pl3     1 <0>        -0.8293
     23 O2         -6.9288   -4.5295    4.7035 O.3       1 <0>        -0.2869
     24 C18        -8.1019   -4.3134    5.3299 C.2       1 <0>         0.5110
     25 O3         -8.9249   -3.5674    4.8378 O.2       1 <0>        -0.4772
     26 C19        -8.3874   -4.9833    6.6144 C.ar      1 <0>        -0.1241
     27 C20        -7.4409   -5.8371    7.1855 C.ar      1 <0>        -0.0467
     28 C21        -7.7134   -6.4597    8.3851 C.ar      1 <0>        -0.1230
     29 C22        -8.9230   -6.2403    9.0236 C.ar      1 <0>         0.0009
     30 C23        -9.8659   -5.3951    8.4621 C.ar      1 <0>        -0.1212
     31 C24        -9.6026   -4.7613    7.2662 C.ar      1 <0>        -0.0379
     32 Cl1        -9.2588   -7.0284   10.5335 Cl        1 <0>        -0.0523
     33 H2          1.2620    1.7645   -0.1294 H         1 <0>         0.1099
     34 H3         -0.3163    1.8765   -0.9446 H         1 <0>         0.0840
     35 H4         -0.2347    1.8172    0.8325 H         1 <0>         0.0845
     36 H5         -2.1694    1.3815    0.0055 H         1 <0>         0.1240
     37 H6         -4.5825    0.9088    0.1006 H         1 <0>         0.1267
     38 H7         -3.7795   -3.2777   -0.0550 H         1 <0>         0.1217
     39 H8         -1.3645   -2.8168   -0.1621 H         1 <0>         0.1281
     40 H9         -5.9418   -0.6451    2.6321 H         1 <0>         0.1438
     41 H10        -6.4322   -1.9576    4.6526 H         1 <0>         0.1377
     42 H11        -6.8223   -5.4807    2.2682 H         1 <0>         0.1492
     43 H12        -6.9956   -5.1652   -2.2822 H         1 <0>         0.4123
     44 H13        -6.9177   -3.7031   -3.1063 H         1 <0>         0.4264
     45 H14        -6.4978   -6.0095    6.6882 H         1 <0>         0.1510
     46 H15        -6.9824   -7.1202    8.8277 H         1 <0>         0.1464
     47 H16       -10.8074   -5.2286    8.9643 H         1 <0>         0.1473
     48 H17       -10.3364   -4.0985    6.8319 H         1 <0>         0.1501
@<TRIPOS>BOND
     1    1    2 1
     2    1   33 1
     3    1   34 1
     4    1   35 1
     5    2    3 1
     6    3    8 ar
     7    3    4 ar
     8    4    5 ar
     9    4   36 1
    10    5    6 ar
    11    5   37 1
    12    6    7 ar
    13    6    9 1
    14    7    8 ar
    15    7   38 1
    16    8   39 1
    17    9   10 1
    18    9   19 1
    19    9   11 1
    20   11   16 ar
    21   11   12 ar
    22   12   13 ar
    23   12   40 1
    24   13   14 ar
    25   13   41 1
    26   14   15 ar
    27   14   23 1
    28   15   16 ar
    29   15   42 1
    30   16   17 1
    31   17   18 1
    32   18   19 2
    33   18   22 1
    34   19   20 1
    35   20   21 3
    36   22   43 1
    37   22   44 1
    38   23   24 1
    39   24   25 2
    40   24   26 1
    41   26   31 ar
    42   26   27 ar
    43   27   28 ar
    44   27   45 1
    45   28   29 ar
    46   28   46 1
    47   29   30 ar
    48   29   32 1
    49   30   31 ar
    50   30   47 1
    51   31   48 1
