@<TRIPOS>MOLECULE
ZINC09337177
   57    59     0     0     0
SMALL
USER_CHARGES

@<TRIPOS>ATOM
      1 C1          0.8187    0.0783    0.0190 C.3       1 <0>        -0.1499
      2 C2          0.1434   -1.2627   -0.2749 C.3       1 <0>        -0.0880
      3 C3         -1.3486   -1.1185   -0.1194 C.ar      1 <0>        -0.1033
      4 C4         -1.9537   -1.4452    1.0786 C.ar      1 <0>        -0.1012
      5 C5         -3.3225   -1.3132    1.2221 C.ar      1 <0>        -0.1268
      6 C6         -4.0902   -0.8535    0.1675 C.ar      1 <0>        -0.1075
      7 C7         -3.4913   -0.5248   -1.0326 C.ar      1 <0>        -0.1164
      8 C8         -2.1159   -0.6517   -1.1783 C.ar      1 <0>         0.1398
      9 N1         -1.5053   -0.3145   -2.3913 N.am      1 <0>        -0.6651
     10 C9         -2.1471   -0.5408   -3.5547 C.2       1 <0>         0.5107
     11 O1         -3.2850   -0.9606   -3.5478 O.2       1 <0>        -0.5156
     12 C10        -1.4509   -0.2722   -4.8640 C.3       1 <0>         0.1024
     13 N2         -2.3532   -0.5951   -5.9720 N.am      1 <0>        -0.7151
     14 C11        -1.9422   -0.4321   -7.2452 C.2       1 <0>         0.5424
     15 O2         -0.8253   -0.0180   -7.4735 O.2       1 <0>        -0.5121
     16 C12        -2.8703   -0.7642   -8.3851 C.3       1 <0>        -0.1216
     17 H1         -3.4859   -1.6220   -8.1142 H         1 <0>         0.1113
     18 C13        -3.7707    0.4380   -8.6765 C.3       1 <0>        -0.1444
     19 S1         -1.8956   -1.1618   -9.8623 S.3       1 <0>        -0.0727
     20 C14        -3.1361   -1.6798  -11.0803 C.3       1 <0>        -0.0853
     21 C15        -2.4505   -2.0430  -12.3723 C.2       1 <0>         0.4206
     22 N3         -3.1957   -2.4559  -13.4296 N.am      1 <0>        -0.6311
     23 H2         -4.1599   -2.5114  -13.3385 H         1 <0>         0.4215
     24 C16        -2.6239   -2.7893  -14.6015 C.2       1 <0>         0.5598
     25 O3         -3.3073   -3.1574  -15.5413 O.2       1 <0>        -0.5176
     26 C17        -1.1988   -2.7044  -14.7270 C.2       1 <0>        -0.2428
     27 C18        -0.3559   -3.0037  -15.8695 C.2       1 <0>        -0.0622
     28 C19         0.9735   -2.8502  -15.7611 C.2       1 <0>        -0.1634
     29 S2          1.1882   -2.2821  -14.0848 S.3       1 <0>         0.1526
     30 C20        -0.5126   -2.2676  -13.5796 C.2       1 <0>         0.1045
     31 N4         -1.1504   -1.9500  -12.4568 N.2       1 <0>        -0.4643
     32 C21         2.0308   -3.0989  -16.8057 C.3       1 <0>        -0.0685
     33 C22        -0.9653   -3.4817  -17.1622 C.3       1 <0>        -0.1057
     34 H3          1.8979   -0.0260   -0.0935 H         1 <0>         0.0630
     35 H4          0.4517    0.8307   -0.6791 H         1 <0>         0.0513
     36 H5          0.5877    0.3857    1.0389 H         1 <0>         0.0605
     37 H6          0.3743   -1.5701   -1.2948 H         1 <0>         0.0700
     38 H7          0.5104   -2.0151    0.4233 H         1 <0>         0.0784
     39 H8         -1.3570   -1.8045    1.9040 H         1 <0>         0.1267
     40 H9         -3.7933   -1.5699    2.1596 H         1 <0>         0.1245
     41 H10        -5.1592   -0.7518    0.2826 H         1 <0>         0.1261
     42 H11        -4.0914   -0.1661   -1.8558 H         1 <0>         0.1389
     43 H12        -0.6201    0.0822   -2.3950 H         1 <0>         0.4139
     44 H13        -1.1715    0.7800   -4.9177 H         1 <0>         0.1063
     45 H14        -0.5555   -0.8899   -4.9327 H         1 <0>         0.1072
     46 H15        -3.2464   -0.9263   -5.7894 H         1 <0>         0.4139
     47 H16        -3.1551    1.2958   -8.9473 H         1 <0>         0.0795
     48 H17        -4.4420    0.1977   -9.5009 H         1 <0>         0.0700
     49 H18        -4.3564    0.6769   -7.7888 H         1 <0>         0.0715
     50 H19        -3.6784   -2.5458  -10.7008 H         1 <0>         0.1229
     51 H20        -3.8350   -0.8623  -11.2572 H         1 <0>         0.1237
     52 H21         2.1994   -2.1858  -17.3767 H         1 <0>         0.0822
     53 H22         2.9587   -3.3997  -16.3192 H         1 <0>         0.0769
     54 H23         1.6992   -3.8911  -17.4769 H         1 <0>         0.0852
     55 H24        -1.1990   -2.6239  -17.7928 H         1 <0>         0.0723
     56 H25        -0.2584   -4.1307  -17.6790 H         1 <0>         0.0682
     57 H26        -1.8794   -4.0362  -16.9498 H         1 <0>         0.0820
@<TRIPOS>BOND
     1    1    2 1
     2    1   34 1
     3    1   35 1
     4    1   36 1
     5    2    3 1
     6    2   37 1
     7    2   38 1
     8    3    8 ar
     9    3    4 ar
    10    4    5 ar
    11    4   39 1
    12    5    6 ar
    13    5   40 1
    14    6    7 ar
    15    6   41 1
    16    7    8 ar
    17    7   42 1
    18    8    9 1
    19    9   10 am
    20    9   43 1
    21   10   11 2
    22   10   12 1
    23   12   13 1
    24   12   44 1
    25   12   45 1
    26   13   14 am
    27   13   46 1
    28   14   15 2
    29   14   16 1
    30   16   17 1
    31   16   18 1
    32   16   19 1
    33   18   47 1
    34   18   48 1
    35   18   49 1
    36   19   20 1
    37   20   21 1
    38   20   50 1
    39   20   51 1
    40   21   31 2
    41   21   22 1
    42   22   23 1
    43   22   24 am
    44   24   25 2
    45   24   26 1
    46   26   30 2
    47   26   27 1
    48   27   28 2
    49   27   33 1
    50   28   29 1
    51   28   32 1
    52   29   30 1
    53   30   31 1
    54   32   52 1
    55   32   53 1
    56   32   54 1
    57   33   55 1
    58   33   56 1
    59   33   57 1
