@<TRIPOS>MOLECULE
ZINC03007201
   67    70     0     0     0
SMALL
USER_CHARGES
4-isopropyl-8-[4-[(3-methyl-1-piperidyl)sulfonyl]benzoyl]amino-7-thia-4-azabicyclo[4.3.0]nona-8,10-diene-9-carboxamide
@<TRIPOS>ATOM
      1 C1          2.4534    4.3012    1.1059 C.3       1 <0>        -0.1499
      2 C2          1.2168    3.4030    1.1760 C.3       1 <0>        -0.1067
      3 H1          1.2213    2.8505    2.1156 H         1 <0>         0.0719
      4 C3         -0.0459    4.2639    1.0957 C.3       1 <0>        -0.1151
      5 C4         -1.2830    3.3689    1.1992 C.3       1 <0>        -0.1360
      6 C5         -1.2947    2.3831    0.0210 C.3       1 <0>         0.1163
      7 N1         -0.0204    1.6518    0.0111 N.pl3     1 <0>        -0.9927
      8 C6          1.2335    2.4175    0.0033 C.3       1 <0>         0.1212
      9 S1          0.0021   -0.0041    0.0020 S.o2      1 <0>         2.6846
     10 O1         -1.2429   -0.4241   -0.5392 O.2       1 <0>        -0.9430
     11 O2          1.2475   -0.3902   -0.5628 O.2       1 <0>        -0.9443
     12 C7          0.0252   -0.5340    1.6823 C.ar      1 <0>        -0.6434
     13 C8          1.2342   -0.7303    2.3259 C.ar      1 <0>        -0.0226
     14 C9          1.2594   -1.1396    3.6431 C.ar      1 <0>        -0.1031
     15 C10         0.0616   -1.3669    4.3231 C.ar      1 <0>        -0.0934
     16 C11        -1.1547   -1.1725    3.6659 C.ar      1 <0>        -0.0673
     17 C12        -1.1656   -0.7575    2.3504 C.ar      1 <0>        -0.0222
     18 C13         0.0810   -1.8110    5.7326 C.2       1 <0>         0.5616
     19 O3         -0.9637   -2.0077    6.3223 O.2       1 <0>        -0.4819
     20 N2          1.2569   -1.9978    6.3641 N.am      1 <0>        -0.6152
     21 C14         1.2750   -2.4140    7.6855 C.2       1 <0>         0.1016
     22 C15         2.3748   -2.6641    8.4963 C.2       1 <0>        -0.2352
     23 C16         2.1177   -3.0904    9.8587 C.2       1 <0>        -0.0395
     24 C17         0.8118   -3.2094   10.1903 C.2       1 <0>        -0.3150
     25 S2         -0.0689   -2.7563    8.7250 S.3       1 <0>         0.3307
     26 C18         0.2675   -3.6361   11.5176 C.3       1 <0>         0.1010
     27 C19         2.5551   -3.3865   12.2762 C.3       1 <0>         0.0011
     28 C20         3.1990   -3.4018   10.8868 C.3       1 <0>        -0.0898
     29 C21         0.9411   -4.5379   13.6671 C.3       1 <0>         0.0294
     30 C22         0.5463   -3.2344   14.3642 C.3       1 <0>        -0.1840
     31 C23        -0.2588   -5.4868   13.6424 C.3       1 <0>        -0.1866
     32 C24         3.7429   -2.4998    7.9954 C.2       1 <0>         0.5751
     33 O4          4.3061   -1.4263    8.1045 O.2       1 <0>        -0.5205
     34 N3          4.3769   -3.5374    7.4142 N.am      1 <0>        -0.8442
     35 H2          2.4480    4.8543    0.1667 H         1 <0>         0.0609
     36 H3          2.4411    5.0022    1.9405 H         1 <0>         0.0603
     37 H4          3.3522    3.6870    1.1605 H         1 <0>         0.0584
     38 H5         -0.0481    4.9827    1.9151 H         1 <0>         0.0670
     39 H6         -0.0621    4.7970    0.1450 H         1 <0>         0.0690
     40 H7         -1.2550    2.8168    2.1385 H         1 <0>         0.0649
     41 H8         -2.1816    3.9851    1.1660 H         1 <0>         0.0796
     42 H9         -1.4097    2.9295   -0.9151 H         1 <0>         0.0822
     43 H10        -2.1188    1.6796    0.1396 H         1 <0>         0.0922
     44 H11         2.0781    1.7367    0.1101 H         1 <0>         0.0910
     45 H12         1.3205    2.9666   -0.9343 H         1 <0>         0.0820
     46 H13         2.1602   -0.5583    1.7973 H         1 <0>         0.1529
     47 H14         2.2037   -1.2878    4.1458 H         1 <0>         0.1342
     48 H15        -2.0849   -1.3462    4.1864 H         1 <0>         0.1529
     49 H16        -2.1059   -0.6070    1.8407 H         1 <0>         0.1552
     50 H17         2.0904   -1.8408    5.8936 H         1 <0>         0.4267
     51 H18        -0.1198   -2.7688   12.0523 H         1 <0>         0.1459
     52 H19        -0.5300   -4.3646   11.3709 H         1 <0>         0.1423
     53 H20         2.2660   -2.3665   12.5294 H         1 <0>         0.1354
     54 H21         3.2741   -3.7511   13.0098 H         1 <0>         0.1378
     55 H22         3.9831   -2.6463   10.8364 H         1 <0>         0.1249
     56 H23         3.6226   -4.3863   10.6884 H         1 <0>         0.1066
     57 H24         1.7630   -5.0054   14.2093 H         1 <0>         0.1396
     58 H25        -0.2755   -2.7669   13.8219 H         1 <0>         0.0815
     59 H26         0.2320   -3.4494   15.3855 H         1 <0>         0.1071
     60 H27         1.4012   -2.5584   14.3818 H         1 <0>         0.0817
     61 H28         0.0225   -6.4154   13.1457 H         1 <0>         0.0819
     62 H29        -0.5731   -5.7018   14.6637 H         1 <0>         0.1075
     63 H30        -1.0807   -5.0193   13.1001 H         1 <0>         0.0820
     64 H31         3.9280   -4.3929    7.3273 H         1 <0>         0.4046
     65 H32         5.2820   -3.4287    7.0828 H         1 <0>         0.4108
     66 N4          1.3716   -4.2710   12.2777 N.4       1 <0>        -0.3919
     67 H33         1.6186   -5.1605   11.8283 H         1 <0>         0.4299
@<TRIPOS>BOND
     1    1    2 1
     2    1   35 1
     3    1   36 1
     4    1   37 1
     5    2    3 1
     6    2    8 1
     7    2    4 1
     8    4    5 1
     9    4   38 1
    10    4   39 1
    11    5    6 1
    12    5   40 1
    13    5   41 1
    14    6    7 1
    15    6   42 1
    16    6   43 1
    17    7    8 1
    18    7    9 1
    19    8   44 1
    20    8   45 1
    21    9   10 2
    22    9   11 2
    23    9   12 1
    24   12   17 ar
    25   12   13 ar
    26   13   14 ar
    27   13   46 1
    28   14   15 ar
    29   14   47 1
    30   15   16 ar
    31   15   18 1
    32   16   17 ar
    33   16   48 1
    34   17   49 1
    35   18   19 2
    36   18   20 am
    37   20   21 1
    38   20   50 1
    39   21   25 1
    40   21   22 2
    41   22   23 1
    42   22   32 1
    43   23   28 1
    44   23   24 2
    45   24   25 1
    46   24   26 1
    47   26   51 1
    48   26   52 1
    49   26   66 1
    50   27   28 1
    51   27   53 1
    52   27   54 1
    53   27   66 1
    54   28   55 1
    55   28   56 1
    56   29   30 1
    57   29   31 1
    58   29   57 1
    59   29   66 1
    60   30   58 1
    61   30   59 1
    62   30   60 1
    63   31   61 1
    64   31   62 1
    65   31   63 1
    66   32   33 2
    67   32   34 am
    68   34   64 1
    69   34   65 1
    70   66   67 1
