@<TRIPOS>MOLECULE
ZINC20266091
   35    37     0     0     0
SMALL
USER_CHARGES

@<TRIPOS>ATOM
      1 C1          0.0481    1.7321   -0.1171 C.3       1 <0>        -0.1679
      2 C2         -0.0478    0.2058   -0.1630 C.3       1 <0>         0.1135
      3 N1          0.6685   -0.2933   -1.3395 N.am      1 <0>        -0.5596
      4 C3          0.0897   -0.4760   -2.5905 C.ar      1 <0>         0.1713
      5 C4         -1.2047   -0.2622   -3.0502 C.ar      1 <0>        -0.1524
      6 C5         -1.5264   -0.5294   -4.3658 C.ar      1 <0>        -0.0688
      7 C6         -0.5682   -1.0117   -5.2434 C.ar      1 <0>        -0.1221
      8 C7          0.7230   -1.2305   -4.8061 C.ar      1 <0>        -0.0322
      9 C8          1.0572   -0.9641   -3.4808 C.ar      1 <0>        -0.0787
     10 C9          2.3119   -1.0846   -2.7095 C.2       1 <0>        -0.1526
     11 C10         3.5412   -1.5244   -3.1657 C.2       1 <0>        -0.0174
     12 C11         4.7297   -1.4324   -2.2921 C.2       1 <0>         0.5112
     13 O1          4.6095   -1.0599   -1.1338 O.co2     1 <0>        -0.6367
     14 O2          5.8330   -1.7287   -2.7277 O.co2     1 <0>        -0.6586
     15 S1          3.6904   -2.1945   -4.7885 S.3       1 <0>         0.0552
     16 C12         4.1176   -3.8820   -4.5152 C.2       1 <0>         0.0743
     17 N2          4.3610   -4.4476   -3.3557 N.2       1 <0>        -0.3310
     18 N3          4.6401   -5.6905   -3.5273 N.2       1 <0>        -0.3739
     19 C13         4.5916   -5.9886   -4.7961 C.2       1 <0>         0.0532
     20 N4          4.2522   -4.8502   -5.4690 N.2       1 <0>        -0.5754
     21 C14         4.8559   -7.3410   -5.4062 C.3       1 <0>        -0.0177
     22 C15         1.9702   -0.6275   -1.3487 C.2       1 <0>         0.5467
     23 O3          2.7317   -0.5667   -0.4015 O.2       1 <0>        -0.4100
     24 Br1        -1.0300   -1.3711   -7.0416 Br        1 <0>        -0.0680
     25 H1          1.0953    2.0287   -0.0578 H         1 <0>         0.0635
     26 H2         -0.3979    2.1515   -1.0189 H         1 <0>         0.0566
     27 H3         -0.4849    2.1034    0.7583 H         1 <0>         0.0640
     28 H4          0.3981   -0.2136    0.7388 H         1 <0>         0.0868
     29 H5         -1.0950   -0.0908   -0.2223 H         1 <0>         0.0765
     30 H6         -1.9605    0.1134   -2.3763 H         1 <0>         0.1248
     31 H7         -2.5346   -0.3612   -4.7146 H         1 <0>         0.1285
     32 H8          1.4705   -1.6070   -5.4887 H         1 <0>         0.1530
     33 H9          3.9121   -7.8692   -5.5417 H         1 <0>         0.0432
     34 H10         5.3436   -7.2146   -6.3727 H         1 <0>         0.0487
     35 H11         5.5032   -7.9175   -4.7453 H         1 <0>         0.0518
@<TRIPOS>BOND
     1    1    2 1
     2    1   25 1
     3    1   26 1
     4    1   27 1
     5    2    3 1
     6    2   28 1
     7    2   29 1
     8    3   22 am
     9    3    4 1
    10    4    9 ar
    11    4    5 ar
    12    5    6 ar
    13    5   30 1
    14    6    7 ar
    15    6   31 1
    16    7    8 ar
    17    7   24 1
    18    8    9 ar
    19    8   32 1
    20    9   10 1
    21   10   11 2
    22   10   22 1
    23   11   12 1
    24   11   15 1
    25   12   13 2
    26   12   14 1
    27   15   16 1
    28   16   20 1
    29   16   17 2
    30   17   18 1
    31   18   19 2
    32   19   21 1
    33   19   20 1
    34   21   33 1
    35   21   34 1
    36   21   35 1
    37   22   23 2
