@<TRIPOS>MOLECULE
ZINC64151146
   55    58     0     0     0
SMALL
USER_CHARGES

@<TRIPOS>ATOM
      1 C1         -0.0163    1.3482    0.0095 C.ar      1 <0>        -0.1525
      2 C2          1.1658    2.1014    0.0022 C.ar      1 <0>         0.0586
      3 C3          2.3912    1.5352   -0.0125 C.ar      1 <0>        -0.2121
      4 C4          2.5288    0.1198   -0.0218 C.ar      1 <0>         0.3289
      5 N1          3.5868   -0.6543   -0.0369 N.pl3     1 <0>        -0.5868
      6 C5          3.1432   -2.0528   -0.0408 C.3       1 <0>         0.0609
      7 C6          1.6315   -2.0084   -0.0255 C.2       1 <0>         0.0692
      8 C7          1.2951   -0.6984   -0.0144 C.ar      1 <0>        -0.1633
      9 C8          0.0021   -0.0041    0.0020 C.ar      1 <0>        -0.0099
     10 C9          0.6905   -3.1856   -0.0239 C.3       1 <0>        -0.1119
     11 C10         0.4565   -3.6534   -1.4617 C.3       1 <0>         0.1484
     12 H1          1.4151   -3.8639   -1.9359 H         1 <0>         0.1257
     13 C11        -0.3847   -4.9037   -1.4525 C.2       1 <0>         0.5015
     14 O1         -1.5743   -4.8359   -1.6791 O.2       1 <0>        -0.4864
     15 N2          0.1848   -6.0972   -1.1926 N.am      1 <0>        -0.7156
     16 C12        -0.6330   -7.3127   -1.1836 C.3       1 <0>         0.1006
     17 C13         0.2378   -8.5017   -0.8691 C.2       1 <0>         0.5142
     18 O2          1.4247   -8.3489   -0.6719 O.2       1 <0>        -0.5382
     19 N3         -0.3024   -9.7350   -0.8071 N.am      1 <0>        -0.7201
     20 C14         0.5442  -10.8909   -0.5013 C.3       1 <0>         0.2062
     21 C15        -0.2971  -12.1412   -0.4921 C.2       1 <0>        -0.0538
     22 C16        -0.5371  -12.9357   -1.5507 C.2       1 <0>        -0.1742
     23 C17        -1.3673  -13.9854   -1.0951 C.2       1 <0>        -0.2186
     24 C18        -1.5851  -13.7696    0.2146 C.2       1 <0>        -0.0196
     25 O3         -0.9297  -12.6544    0.5757 O.3       1 <0>        -0.1716
     26 N4         -0.2382   -2.6029   -2.2101 N.am      1 <0>        -0.7263
     27 C19        -1.4508   -2.1764   -1.8050 C.2       1 <0>         0.6151
     28 O4         -1.9687   -2.6640   -0.8175 O.2       1 <0>        -0.4897
     29 C20        -2.1459   -1.1253   -2.5538 C.2       1 <0>        -0.2745
     30 C21        -3.3815   -0.5470   -2.3060 C.2       1 <0>        -0.0539
     31 C22        -3.7739    0.4261   -3.1935 C.2       1 <0>        -0.1857
     32 C23        -2.9530    0.7488   -4.2233 C.2       1 <0>        -0.2054
     33 S1         -1.6195   -0.2519   -4.0160 S.3       1 <0>         0.1964
     34 H2         -0.9665    1.8612    0.0259 H         1 <0>         0.1559
     35 H3          1.0933    3.1789    0.0083 H         1 <0>         0.1606
     36 H4          3.2717    2.1606   -0.0175 H         1 <0>         0.1606
     37 H5          3.4952   -2.5561   -0.9413 H         1 <0>         0.1735
     38 H6          3.5129   -2.5667    0.8465 H         1 <0>         0.1757
     39 H7         -0.9210   -0.5647    0.0081 H         1 <0>         0.1575
     40 H8          1.1268   -3.9987    0.5563 H         1 <0>         0.1281
     41 H9         -0.2596   -2.8905    0.4214 H         1 <0>         0.1380
     42 H10         1.1362   -6.1514   -1.0114 H         1 <0>         0.4111
     43 H11        -1.4111   -7.2215   -0.4257 H         1 <0>         0.1065
     44 H12        -1.0933   -7.4481   -2.1624 H         1 <0>         0.1055
     45 H13        -1.2516   -9.8572   -0.9648 H         1 <0>         0.4099
     46 H14         1.3222  -10.9820   -1.2592 H         1 <0>         0.1036
     47 H15         1.0044  -10.7554    0.4774 H         1 <0>         0.0898
     48 H16        -0.1670  -12.7978   -2.5559 H         1 <0>         0.1520
     49 H17        -1.7530  -14.8034   -1.6855 H         1 <0>         0.1539
     50 H18        -2.1824  -14.3902    0.8662 H         1 <0>         0.2084
     51 H19         0.1746   -2.2142   -2.9972 H         1 <0>         0.4089
     52 H20        -3.9966   -0.8428   -1.4690 H         1 <0>         0.1523
     53 H21        -4.7233    0.9267   -3.0726 H         1 <0>         0.1441
     54 H22        -3.1167    1.4844   -4.9969 H         1 <0>         0.1929
     55 H23         4.5087   -0.3528   -0.0446 H         1 <0>         0.4557
@<TRIPOS>BOND
     1    1    9 ar
     2    1    2 ar
     3    1   34 1
     4    2    3 ar
     5    2   35 1
     6    3    4 ar
     7    3   36 1
     8    4    8 ar
     9    4    5 2
    10    5    6 1
    11    5   55 1
    12    6    7 1
    13    6   37 1
    14    6   38 1
    15    7    8 2
    16    7   10 1
    17    8    9 ar
    18    9   39 1
    19   10   11 1
    20   10   40 1
    21   10   41 1
    22   11   12 1
    23   11   13 1
    24   11   26 1
    25   13   14 2
    26   13   15 am
    27   15   16 1
    28   15   42 1
    29   16   17 1
    30   16   43 1
    31   16   44 1
    32   17   18 2
    33   17   19 am
    34   19   20 1
    35   19   45 1
    36   20   21 1
    37   20   46 1
    38   20   47 1
    39   21   25 1
    40   21   22 2
    41   22   23 1
    42   22   48 1
    43   23   24 2
    44   23   49 1
    45   24   25 1
    46   24   50 1
    47   26   27 am
    48   26   51 1
    49   27   28 2
    50   27   29 1
    51   29   33 1
    52   29   30 2
    53   30   31 1
    54   30   52 1
    55   31   32 2
    56   31   53 1
    57   32   33 1
    58   32   54 1
