@<TRIPOS>MOLECULE
ZINC36519820
   68    69     0     0     0
SMALL
USER_CHARGES

@<TRIPOS>ATOM
      1 C1          1.7029    0.1396   -3.6284 C.3       1 <0>        -0.1538
      2 C2          0.5399   -0.7683   -4.0333 C.3       1 <0>        -0.1247
      3 C3         -0.1434   -1.3127   -2.7773 C.3       1 <0>        -0.1175
      4 C4         -1.3064   -2.2206   -3.1822 C.3       1 <0>        -0.1110
      5 C5         -1.9897   -2.7650   -1.9261 C.3       1 <0>        -0.1272
      6 C6         -3.1528   -3.6728   -2.3311 C.3       1 <0>         0.0952
      7 N1         -3.8070   -4.1941   -1.1284 N.am      1 <0>        -0.5845
      8 C7         -5.1979   -3.8371   -0.8380 C.3       1 <0>         0.1457
      9 H1         -5.3853   -3.9455    0.2303 H         1 <0>         0.1287
     10 C8         -6.1210   -4.7485   -1.6050 C.ar      1 <0>        -0.0858
     11 C9         -5.8205   -6.0922   -1.7281 C.ar      1 <0>        -0.1096
     12 C10        -6.6672   -6.9282   -2.4317 C.ar      1 <0>        -0.0618
     13 C11        -7.8148   -6.4206   -3.0117 C.ar      1 <0>        -0.1667
     14 C12        -8.1158   -5.0771   -2.8878 C.ar      1 <0>        -0.0583
     15 C13        -7.2712   -4.2419   -2.1806 C.ar      1 <0>        -0.1040
     16 C14        -8.7374   -7.3318   -3.7795 C.3       1 <0>         0.5073
     17 F1         -9.6942   -7.8667   -2.9103 F         1 <0>        -0.1729
     18 F2         -9.3784   -6.6042   -4.7880 F         1 <0>        -0.1734
     19 F3         -7.9960   -8.3703   -4.3531 F         1 <0>        -0.1733
     20 C15        -5.4462   -2.4088   -1.2493 C.2       1 <0>         0.5189
     21 O1         -4.7750   -1.9043   -2.1244 O.2       1 <0>        -0.4953
     22 N2         -6.4143   -1.6920   -0.6446 N.am      1 <0>        -0.7173
     23 C16        -6.6557   -0.3035   -1.0444 C.3       1 <0>         0.1694
     24 C17        -7.0330   -0.2578   -2.5265 C.3       1 <0>        -0.1665
     25 C18        -7.7989    0.2764   -0.2090 C.3       1 <0>        -0.1582
     26 C19        -5.3875    0.5211   -0.8154 C.3       1 <0>        -0.1660
     27 C20        -3.1293   -5.0020   -0.2891 C.2       1 <0>         0.5597
     28 O2         -1.9481   -5.2195   -0.4762 O.2       1 <0>        -0.4976
     29 C21        -3.8226   -5.6238    0.8592 C.ar      1 <0>        -0.1383
     30 C22        -5.1868   -5.9103    0.7831 C.ar      1 <0>        -0.1044
     31 C23        -5.8275   -6.4908    1.8578 C.ar      1 <0>        -0.1176
     32 C24        -5.1211   -6.7889    3.0098 C.ar      1 <0>        -0.0302
     33 C25        -3.7692   -6.5072    3.0920 C.ar      1 <0>        -0.0525
     34 C26        -3.1150   -5.9322    2.0218 C.ar      1 <0>         0.0015
     35 N3         -3.0217   -6.8289    4.3283 N.pl3     1 <0>         0.0307
     36 O3         -3.5926   -7.3374    5.2649 O.2       1 <0>        -0.1492
     37 O4         -1.8402   -6.5833    4.4015 O.3       1 <0>        -0.1483
     38 H2          2.1897    0.5274   -4.5232 H         1 <0>         0.0530
     39 H3          1.3251    0.9697   -3.0315 H         1 <0>         0.0525
     40 H4          2.4226   -0.4316   -3.0419 H         1 <0>         0.0533
     41 H5         -0.1797   -0.1971   -4.6198 H         1 <0>         0.0599
     42 H6          0.9177   -1.5984   -4.6301 H         1 <0>         0.0602
     43 H7          0.5763   -1.8839   -2.1908 H         1 <0>         0.0600
     44 H8         -0.5212   -0.4826   -2.1804 H         1 <0>         0.0586
     45 H9         -2.0261   -1.6494   -3.7687 H         1 <0>         0.0632
     46 H10        -0.9286   -3.0507   -3.7790 H         1 <0>         0.0591
     47 H11        -1.2701   -3.3361   -1.3396 H         1 <0>         0.0730
     48 H12        -2.3675   -1.9348   -1.3293 H         1 <0>         0.0600
     49 H13        -3.8724   -3.1017   -2.9176 H         1 <0>         0.1357
     50 H14        -2.7749   -4.5030   -2.9279 H         1 <0>         0.0622
     51 H15        -4.9239   -6.4887   -1.2750 H         1 <0>         0.1421
     52 H16        -6.4321   -7.9778   -2.5285 H         1 <0>         0.1461
     53 H17        -9.0121   -4.6805   -3.3413 H         1 <0>         0.1454
     54 H18        -7.5082   -3.1930   -2.0807 H         1 <0>         0.1438
     55 H19        -6.9511   -2.0955    0.0553 H         1 <0>         0.4014
     56 H20        -7.9366   -0.8452   -2.6897 H         1 <0>         0.0554
     57 H21        -7.2127    0.7754   -2.8239 H         1 <0>         0.0678
     58 H22        -6.2186   -0.6708   -3.1216 H         1 <0>         0.0797
     59 H23        -7.5301    0.2438    0.8468 H         1 <0>         0.0637
     60 H24        -7.9785    1.3095   -0.5065 H         1 <0>         0.0778
     61 H25        -8.7024   -0.3111   -0.3722 H         1 <0>         0.0642
     62 H26        -4.5731    0.1080   -1.4105 H         1 <0>         0.0798
     63 H27        -5.5671    1.5542   -1.1128 H         1 <0>         0.0667
     64 H28        -5.1187    0.4885    0.2405 H         1 <0>         0.0547
     65 H29        -5.7393   -5.6775   -0.1152 H         1 <0>         0.1863
     66 H30        -6.8828   -6.7129    1.8002 H         1 <0>         0.1566
     67 H31        -5.6276   -7.2431    3.8486 H         1 <0>         0.1611
     68 H32        -2.0586   -5.7169    2.0856 H         1 <0>         0.1651
@<TRIPOS>BOND
     1    1    2 1
     2    1   38 1
     3    1   39 1
     4    1   40 1
     5    2    3 1
     6    2   41 1
     7    2   42 1
     8    3    4 1
     9    3   43 1
    10    3   44 1
    11    4    5 1
    12    4   45 1
    13    4   46 1
    14    5    6 1
    15    5   47 1
    16    5   48 1
    17    6    7 1
    18    6   49 1
    19    6   50 1
    20    7    8 1
    21    7   27 am
    22    8    9 1
    23    8   10 1
    24    8   20 1
    25   10   15 ar
    26   10   11 ar
    27   11   12 ar
    28   11   51 1
    29   12   13 ar
    30   12   52 1
    31   13   14 ar
    32   13   16 1
    33   14   15 ar
    34   14   53 1
    35   15   54 1
    36   16   17 1
    37   16   18 1
    38   16   19 1
    39   20   21 2
    40   20   22 am
    41   22   23 1
    42   22   55 1
    43   23   24 1
    44   23   25 1
    45   23   26 1
    46   24   56 1
    47   24   57 1
    48   24   58 1
    49   25   59 1
    50   25   60 1
    51   25   61 1
    52   26   62 1
    53   26   63 1
    54   26   64 1
    55   27   28 2
    56   27   29 1
    57   29   34 ar
    58   29   30 ar
    59   30   31 ar
    60   30   65 1
    61   31   32 ar
    62   31   66 1
    63   32   33 ar
    64   32   67 1
    65   33   34 ar
    66   33   35 1
    67   34   68 1
    68   35   36 2
    69   35   37 1
