@<TRIPOS>MOLECULE
ZINC12033238
   56    58     0     0     0
SMALL
USER_CHARGES

@<TRIPOS>ATOM
      1 C1         -1.9508    1.4160    1.6299 C.3       1 <0>        -0.1740
      2 C2         -1.9255   -0.0899    1.5784 C.2       1 <0>         0.5098
      3 O1         -2.5487   -0.7352    2.3947 O.2       1 <0>        -0.5238
      4 N1         -1.2104   -0.7197    0.6252 N.am      1 <0>        -0.6762
      5 C3         -1.1068   -2.1165    0.6355 C.ar      1 <0>         0.1321
      6 C4          0.0754   -2.7280    0.2394 C.ar      1 <0>        -0.1262
      7 C5          0.1776   -4.1046    0.2496 C.ar      1 <0>        -0.1203
      8 C6         -0.9018   -4.8780    0.6560 C.ar      1 <0>         0.1237
      9 C7         -2.0841   -4.2665    1.0522 C.ar      1 <0>        -0.0979
     10 C8         -2.1843   -2.8897    1.0474 C.ar      1 <0>        -0.1016
     11 N2         -0.7983   -6.2749    0.6659 N.am      1 <0>        -0.6623
     12 C9         -1.8677   -7.0321    0.3507 C.2       1 <0>         0.5328
     13 O2         -2.9414   -6.5081    0.1414 O.2       1 <0>        -0.5012
     14 C10        -1.7295   -8.5299    0.2582 C.3       1 <0>        -0.1453
     15 S1         -3.3316   -9.2590   -0.1802 S.3       1 <0>         0.0928
     16 C11        -3.0080  -10.9897   -0.2484 C.2       1 <0>         0.3898
     17 N3         -1.7931  -11.4281    0.0070 N.2       1 <0>        -0.5719
     18 C12        -1.5045  -12.7338   -0.0333 C.2       1 <0>         0.4576
     19 C13        -2.5015  -13.6507   -0.3501 C.2       1 <0>        -0.1374
     20 C14        -3.7925  -13.1738   -0.6206 C.2       1 <0>         0.5474
     21 N4         -4.0215  -11.8453   -0.5587 N.am      1 <0>        -0.6171
     22 O3         -4.6945  -13.9475   -0.9025 O.2       1 <0>        -0.5159
     23 N5         -2.2202  -15.0298   -0.3988 N.am      1 <0>        -0.6444
     24 C15        -2.8921  -15.8832    0.3992 C.2       1 <0>         0.5640
     25 O4         -3.8017  -15.4756    1.0963 O.2       1 <0>        -0.5109
     26 C16        -2.5241  -17.3122    0.4272 C.ar      1 <0>        -0.1711
     27 C17        -1.4756  -17.7813   -0.3686 C.ar      1 <0>        -0.0478
     28 C18        -1.1354  -19.1154   -0.3396 C.ar      1 <0>        -0.1591
     29 C19        -1.8335  -19.9950    0.4794 C.ar      1 <0>         0.1546
     30 C20        -2.8770  -19.5323    1.2725 C.ar      1 <0>        -0.2162
     31 C21        -3.2194  -18.1986    1.2539 C.ar      1 <0>        -0.0151
     32 O5         -1.4957  -21.3092    0.5044 O.3       1 <0>        -0.3128
     33 C22        -2.2544  -22.1577    1.3685 C.3       1 <0>         0.0235
     34 N6         -0.2204  -13.1700    0.2384 N.pl3     1 <0>        -0.8252
     35 H1         -2.5765    1.7407    2.4613 H         1 <0>         0.0975
     36 H2         -0.9372    1.7918    1.7696 H         1 <0>         0.0923
     37 H3         -2.3569    1.8047    0.6961 H         1 <0>         0.0924
     38 H4         -0.7676   -0.2056   -0.0680 H         1 <0>         0.4124
     39 H5          0.9148   -2.1265   -0.0771 H         1 <0>         0.1315
     40 H6          1.0969   -4.5802   -0.0589 H         1 <0>         0.1317
     41 H7         -2.9237   -4.8680    1.3679 H         1 <0>         0.1435
     42 H8         -3.1021   -2.4140    1.3601 H         1 <0>         0.1430
     43 H9          0.0430   -6.6972    0.8997 H         1 <0>         0.4150
     44 H10        -0.9947   -8.7804   -0.5069 H         1 <0>         0.1364
     45 H11        -1.4017   -8.9246    1.2199 H         1 <0>         0.1362
     46 H12        -1.5430  -15.3655   -1.0067 H         1 <0>         0.3987
     47 H13        -0.9331  -17.0986   -1.0058 H         1 <0>         0.1313
     48 H14        -0.3252  -19.4788   -0.9544 H         1 <0>         0.1386
     49 H15        -3.4170  -20.2189    1.9076 H         1 <0>         0.1366
     50 H16        -4.0274  -17.8391    1.8738 H         1 <0>         0.1398
     51 H17        -3.3037  -22.1306    1.0747 H         1 <0>         0.0596
     52 H18        -1.8822  -23.1794    1.2929 H         1 <0>         0.1040
     53 H19        -2.1559  -21.8103    2.3969 H         1 <0>         0.0593
     54 H20         0.4733  -12.5288    0.4588 H         1 <0>         0.4093
     55 H21        -0.0135  -14.1173    0.2086 H         1 <0>         0.4135
     56 H22        -4.9093  -11.4985   -0.7390 H         1 <0>         0.4225
@<TRIPOS>BOND
     1    1    2 1
     2    1   35 1
     3    1   36 1
     4    1   37 1
     5    2    3 2
     6    2    4 am
     7    4    5 1
     8    4   38 1
     9    5   10 ar
    10    5    6 ar
    11    6    7 ar
    12    6   39 1
    13    7    8 ar
    14    7   40 1
    15    8    9 ar
    16    8   11 1
    17    9   10 ar
    18    9   41 1
    19   10   42 1
    20   11   12 am
    21   11   43 1
    22   12   13 2
    23   12   14 1
    24   14   15 1
    25   14   44 1
    26   14   45 1
    27   15   16 1
    28   16   21 1
    29   16   17 2
    30   17   18 1
    31   18   19 2
    32   18   34 1
    33   19   20 1
    34   19   23 1
    35   20   21 am
    36   20   22 2
    37   21   56 1
    38   23   24 am
    39   23   46 1
    40   24   25 2
    41   24   26 1
    42   26   31 ar
    43   26   27 ar
    44   27   28 ar
    45   27   47 1
    46   28   29 ar
    47   28   48 1
    48   29   30 ar
    49   29   32 1
    50   30   31 ar
    51   30   49 1
    52   31   50 1
    53   32   33 1
    54   33   51 1
    55   33   52 1
    56   33   53 1
    57   34   54 1
    58   34   55 1
