@<TRIPOS>MOLECULE
ZINC03660972
   49    51     0     0     0
SMALL
USER_CHARGES
1-[3-allyl-4-[(4-bromophenyl)methoxy]phenyl]-N-(3-chloro-2-methyl-phenyl)methanimine
@<TRIPOS>ATOM
      1 C1         -9.4018    4.5832   -0.5739 C.3       1 <0>        -0.1158
      2 C2         -9.5893    5.6261    0.4977 C.ar      1 <0>        -0.0668
      3 C3         -8.5110    6.0086    1.2987 C.ar      1 <0>         0.0987
      4 C4         -8.6924    6.9796    2.2859 C.ar      1 <0>        -0.1442
      5 C5         -9.9350    7.5509    2.4677 C.ar      1 <0>        -0.0961
      6 C6        -11.0005    7.1642    1.6748 C.ar      1 <0>        -0.1167
      7 C7        -10.8284    6.2019    0.6937 C.ar      1 <0>        -0.0255
      8 Cl1       -12.1722    5.7237   -0.2960 Cl        1 <0>        -0.0613
      9 N1         -7.2807    5.4385    1.1132 N.2       1 <0>        -0.4844
     10 C8         -6.6078    4.9927    2.1368 C.2       1 <0>         0.2164
     11 C9         -5.2394    4.4856    1.9531 C.ar      1 <0>        -0.1194
     12 C10        -4.6574    4.4811    0.6805 C.ar      1 <0>        -0.0268
     13 C11        -3.3739    4.0115    0.5148 C.ar      1 <0>        -0.2178
     14 C12        -2.6605    3.5314    1.6071 C.ar      1 <0>         0.1576
     15 C13        -3.2342    3.5333    2.8728 C.ar      1 <0>        -0.1147
     16 C14        -4.5153    4.0066    3.0500 C.ar      1 <0>        -0.0395
     17 C15        -2.4530    3.0170    4.0536 C.3       1 <0>        -0.0466
     18 C16        -1.5851    4.1199    4.6028 C.2       1 <0>        -0.1452
     19 C17        -1.6709    4.4530    5.8668 C.2       1 <0>        -0.1984
     20 O1         -1.3972    3.0641    1.4376 O.3       1 <0>        -0.2995
     21 C18        -0.8683    3.0907    0.1104 C.3       1 <0>         0.0954
     22 C19         0.5336    2.5378    0.1172 C.ar      1 <0>        -0.0818
     23 C20         1.6094    3.3845    0.3090 C.ar      1 <0>        -0.0881
     24 C21         2.8957    2.8787    0.3096 C.ar      1 <0>        -0.0932
     25 C22         3.1065    1.5250    0.1182 C.ar      1 <0>        -0.0803
     26 C23         2.0297    0.6782   -0.0737 C.ar      1 <0>        -0.0932
     27 C24         0.7438    1.1849   -0.0741 C.ar      1 <0>        -0.0880
     28 Br1         4.8660    0.8323    0.1196 Br        1 <0>        -0.0443
     29 H1         -8.3550    4.2453   -0.5775 H         1 <0>         0.0801
     30 H2         -9.6509    5.0158   -1.5541 H         1 <0>         0.0750
     31 H3        -10.0627    3.7273   -0.3722 H         1 <0>         0.0717
     32 H4         -7.8617    7.2825    2.9061 H         1 <0>         0.1291
     33 H5        -10.0762    8.3016    3.2311 H         1 <0>         0.1352
     34 H6        -11.9711    7.6146    1.8218 H         1 <0>         0.1355
     35 H7         -7.0634    4.9957    3.1380 H         1 <0>         0.1125
     36 H8         -5.2123    4.8501   -0.1694 H         1 <0>         0.1387
     37 H9         -2.9221    4.0120   -0.4661 H         1 <0>         0.1331
     38 H10        -4.9602    4.0077    4.0341 H         1 <0>         0.1359
     39 H11        -3.1498    2.6760    4.8334 H         1 <0>         0.0776
     40 H12        -1.8195    2.1762    3.7348 H         1 <0>         0.0876
     41 H13        -0.8796    4.6452    3.9423 H         1 <0>         0.1095
     42 H14        -1.0374    5.2580    6.2677 H         1 <0>         0.0993
     43 H15        -2.3764    3.9277    6.5273 H         1 <0>         0.0985
     44 H16        -1.5009    2.4781   -0.5487 H         1 <0>         0.0785
     45 H17        -0.8519    4.1274   -0.2571 H         1 <0>         0.0783
     46 H18         1.4448    4.4414    0.4584 H         1 <0>         0.1345
     47 H19         3.7361    3.5402    0.4599 H         1 <0>         0.1369
     48 H20         2.1938   -0.3788   -0.2228 H         1 <0>         0.1371
     49 H21        -0.0970    0.5237   -0.2236 H         1 <0>         0.1349
@<TRIPOS>BOND
     1    1    2 1
     2    1   29 1
     3    1   30 1
     4    1   31 1
     5    2    7 ar
     6    2    3 ar
     7    3    4 ar
     8    3    9 1
     9    4    5 ar
    10    4   32 1
    11    5    6 ar
    12    5   33 1
    13    6    7 ar
    14    6   34 1
    15    7    8 1
    16    9   10 2
    17   10   11 1
    18   10   35 1
    19   11   16 ar
    20   11   12 ar
    21   12   13 ar
    22   12   36 1
    23   13   14 ar
    24   13   37 1
    25   14   15 ar
    26   14   20 1
    27   15   16 ar
    28   15   17 1
    29   16   38 1
    30   17   18 1
    31   17   39 1
    32   17   40 1
    33   18   19 2
    34   18   41 1
    35   19   42 1
    36   19   43 1
    37   20   21 1
    38   21   22 1
    39   21   44 1
    40   21   45 1
    41   22   27 ar
    42   22   23 ar
    43   23   24 ar
    44   23   46 1
    45   24   25 ar
    46   24   47 1
    47   25   26 ar
    48   25   28 1
    49   26   27 ar
    50   26   48 1
    51   27   49 1
