@<TRIPOS>MOLECULE
ZINC37437177
   48    51     0     0     0
SMALL
USER_CHARGES

@<TRIPOS>ATOM
      1 C1          4.2918   13.8708    2.1746 C.ar      1 <0>        -0.0556
      2 C2          4.8244   12.6222    1.9182 C.ar      1 <0>        -0.1567
      3 C3          6.0236   12.5082    1.2273 C.ar      1 <0>         0.1916
      4 C4          6.6849   13.6521    0.7955 C.ar      1 <0>        -0.0725
      5 C5          6.1464   14.8990    1.0554 C.ar      1 <0>         0.0052
      6 C6          4.9507   15.0074    1.7444 C.ar      1 <0>        -0.1215
      7 Cl1         6.9706   16.3291    0.5177 Cl        1 <0>        -0.0332
      8 Cl2         8.1846   13.5156   -0.0681 Cl        1 <0>        -0.0304
      9 N1          6.5650   11.2455    0.9670 N.pl3     1 <0>        -0.6019
     10 C7          5.7407   10.1325    0.9307 C.2       1 <0>         0.3487
     11 N2          6.0660    8.8593    0.8308 N.2       1 <0>        -0.5269
     12 C8          5.1316    7.9066    0.8107 C.2       1 <0>         0.0277
     13 C9          3.8103    8.2681    0.8960 C.2       1 <0>        -0.1531
     14 S1          3.9579   10.0458    1.0149 S.3       1 <0>         0.0525
     15 C10         5.5123    6.4894    0.6981 C.2       1 <0>         0.5917
     16 O1          4.6640    5.6225    0.7912 O.2       1 <0>        -0.5226
     17 N3          6.8008    6.1521    0.4920 N.am      1 <0>        -0.5675
     18 C11         7.8059    7.1961    0.2771 C.3       1 <0>         0.1366
     19 C12         8.3102    7.7045    1.6292 C.3       1 <0>        -0.1470
     20 C13         9.3442    8.7783    1.4082 C.2       1 <0>         0.5246
     21 O2          9.6477    9.1049    0.2803 O.2       1 <0>        -0.5353
     22 N4          9.9315    9.3758    2.4639 N.am      1 <0>        -0.7062
     23 C14        10.9366   10.4198    2.2490 C.3       1 <0>         0.0770
     24 C15        12.2002   10.3718    3.1103 C.3       1 <0>        -0.1919
     25 C16        11.1402   11.4450    3.3663 C.3       1 <0>        -0.1885
     26 C17         7.1962    4.7416    0.4828 C.3       1 <0>         0.0644
     27 C18         6.0917    3.6994    0.2961 C.3       1 <0>        -0.1934
     28 C19         6.7536    3.8760    1.6642 C.3       1 <0>        -0.1870
     29 H1          3.3569   13.9590    2.7080 H         1 <0>         0.1500
     30 H2          4.3086   11.7351    2.2552 H         1 <0>         0.1462
     31 H3          4.5315   15.9821    1.9461 H         1 <0>         0.1500
     32 H4          7.5176   11.1489    0.8118 H         1 <0>         0.4319
     33 H5          2.9254    7.6489    0.8958 H         1 <0>         0.2104
     34 H6          8.6406    6.7854   -0.2910 H         1 <0>         0.0786
     35 H7          7.3597    8.0213   -0.2779 H         1 <0>         0.1141
     36 H8          7.4755    8.1151    2.1973 H         1 <0>         0.1051
     37 H9          8.7564    6.8792    2.1842 H         1 <0>         0.0875
     38 H10         9.6887    9.1146    3.3659 H         1 <0>         0.4013
     39 H11        11.0405   10.7680    1.2214 H         1 <0>         0.1373
     40 H12        12.2837    9.5635    3.8368 H         1 <0>         0.0971
     41 H13        13.1358   10.6884    2.6493 H         1 <0>         0.1029
     42 H14        11.3785   12.4676    3.0737 H         1 <0>         0.1042
     43 H15        10.5264   11.3428    4.2612 H         1 <0>         0.0968
     44 H16         8.1692    4.5290    0.0398 H         1 <0>         0.1308
     45 H17         5.0708    4.0633    0.1802 H         1 <0>         0.1452
     46 H18         6.3379    2.8010   -0.2698 H         1 <0>         0.0901
     47 H19         7.4352    3.0938    1.9983 H         1 <0>         0.0976
     48 H20         6.1681    4.3561    2.4483 H         1 <0>         0.0938
@<TRIPOS>BOND
     1    1    6 ar
     2    1    2 ar
     3    1   29 1
     4    2    3 ar
     5    2   30 1
     6    3    4 ar
     7    3    9 1
     8    4    5 ar
     9    4    8 1
    10    5    6 ar
    11    5    7 1
    12    6   31 1
    13    9   10 1
    14    9   32 1
    15   10   14 1
    16   10   11 2
    17   11   12 1
    18   12   13 2
    19   12   15 1
    20   13   14 1
    21   13   33 1
    22   15   16 2
    23   15   17 am
    24   17   18 1
    25   17   26 1
    26   18   19 1
    27   18   34 1
    28   18   35 1
    29   19   20 1
    30   19   36 1
    31   19   37 1
    32   20   21 2
    33   20   22 am
    34   22   23 1
    35   22   38 1
    36   23   25 1
    37   23   24 1
    38   23   39 1
    39   24   25 1
    40   24   40 1
    41   24   41 1
    42   25   42 1
    43   25   43 1
    44   26   28 1
    45   26   27 1
    46   26   44 1
    47   27   28 1
    48   27   45 1
    49   27   46 1
    50   28   47 1
    51   28   48 1
