@<TRIPOS>MOLECULE
ZINC40012440
   60    63     0     0     0
SMALL
USER_CHARGES

@<TRIPOS>ATOM
      1 C1         -0.2929    1.0683   -1.7401 C.ar      1 <0>        -0.1494
      2 C2          0.8391    1.7895   -2.1255 C.ar      1 <0>         0.0465
      3 C3          2.0802    1.2446   -2.0916 C.ar      1 <0>        -0.2043
      4 C4          2.2511   -0.0945   -1.6551 C.ar      1 <0>         0.3145
      5 N1          3.3313   -0.8409   -1.5327 N.pl3     1 <0>        -0.5963
      6 C5          2.9502   -2.1656   -1.0333 C.3       1 <0>         0.0795
      7 C6          1.4477   -2.1310   -0.8607 C.2       1 <0>         0.1344
      8 C7          1.0546   -0.8502   -1.2500 C.ar      1 <0>        -0.1414
      9 C8         -0.2052   -0.2173   -1.3116 C.ar      1 <0>        -0.0106
     10 C9          0.6219   -3.1701   -0.4047 C.2       1 <0>         0.2597
     11 N2         -0.6609   -3.0496   -0.1851 N.2       1 <0>        -0.1642
     12 N3         -1.2152   -4.2540    0.2638 N.pl3     1 <0>        -0.5819
     13 C10        -0.1118   -5.2271    0.3197 C.3       1 <0>         0.3692
     14 H1         -0.3049   -6.0617   -0.3543 H         1 <0>         0.1382
     15 N4          1.0650   -4.4675   -0.1333 N.pl3     1 <0>        -0.5940
     16 C11         2.3707   -4.9487   -0.2631 C.ar      1 <0>         0.1373
     17 C12         3.2798   -4.7833    0.7743 C.ar      1 <0>        -0.0968
     18 C13         4.5693   -5.2598    0.6431 C.ar      1 <0>        -0.0959
     19 C14         4.9564   -5.9010   -0.5205 C.ar      1 <0>        -0.0180
     20 C15         4.0530   -6.0672   -1.5556 C.ar      1 <0>        -0.0988
     21 C16         2.7604   -5.5983   -1.4276 C.ar      1 <0>        -0.0960
     22 Cl1         6.5787   -6.4977   -0.6823 Cl        1 <0>        -0.0422
     23 S1          0.1216   -5.8247    2.0165 S.3       1 <0>        -0.1482
     24 C17         0.4583   -4.3186    2.9698 C.3       1 <0>        -0.1246
     25 C18         0.6742   -4.6781    4.4173 C.2       1 <0>         0.5231
     26 O1          0.6075   -5.8363    4.7710 O.2       1 <0>        -0.5116
     27 N5          0.9414   -3.7125    5.3189 N.am      1 <0>        -0.7205
     28 C19         1.1513   -4.0620    6.7260 C.3       1 <0>         0.1172
     29 C20         1.4352   -2.7916    7.5301 C.3       1 <0>        -0.1288
     30 C21         1.6544   -3.1566    8.9997 C.3       1 <0>        -0.1186
     31 C22         1.9384   -1.8863    9.8037 C.3       1 <0>        -0.0911
     32 C23         2.1576   -2.2512   11.2733 C.3       1 <0>        -0.1855
     33 C24         2.4373   -1.0000   12.0653 C.2       1 <0>         0.4872
     34 O2          2.4592    0.0832   11.5062 O.co2     1 <0>        -0.7019
     35 O3          2.6416   -1.0710   13.2652 O.co2     1 <0>        -0.7050
     36 H2         -1.2608    1.5458   -1.7796 H         1 <0>         0.1555
     37 H3          0.7227    2.8097   -2.4601 H         1 <0>         0.1602
     38 H4          2.9363    1.8282   -2.3965 H         1 <0>         0.1604
     39 H5          3.2274   -2.9331   -1.7560 H         1 <0>         0.1693
     40 H6          3.4336   -2.3590   -0.0757 H         1 <0>         0.1694
     41 H7         -1.0961   -0.7534   -1.0194 H         1 <0>         0.1608
     42 H8         -2.1436   -4.4156    0.4933 H         1 <0>         0.4695
     43 H9          2.9784   -4.2823    1.6823 H         1 <0>         0.1363
     44 H10         5.2764   -5.1315    1.4493 H         1 <0>         0.1493
     45 H11         4.3580   -6.5677   -2.4627 H         1 <0>         0.1479
     46 H12         2.0544   -5.7325   -2.2338 H         1 <0>         0.1418
     47 H13         1.3525   -3.8333    2.5787 H         1 <0>         0.1015
     48 H14        -0.3898   -3.6389    2.8869 H         1 <0>         0.1105
     49 H15         0.9947   -2.7862    5.0360 H         1 <0>         0.4001
     50 H16         0.2571   -4.5473    7.1171 H         1 <0>         0.0725
     51 H17         1.9994   -4.7417    6.8090 H         1 <0>         0.0721
     52 H18         2.3294   -2.3063    7.1389 H         1 <0>         0.0677
     53 H19         0.5871   -2.1120    7.4471 H         1 <0>         0.0689
     54 H20         0.7602   -3.6419    9.3908 H         1 <0>         0.0611
     55 H21         2.5025   -3.8363    9.0826 H         1 <0>         0.0605
     56 H22         2.8326   -1.4010    9.4126 H         1 <0>         0.0580
     57 H23         1.0903   -1.2066    9.7208 H         1 <0>         0.0586
     58 H24         1.2634   -2.7366   11.6645 H         1 <0>         0.0561
     59 H25         3.0057   -2.9309   11.3563 H         1 <0>         0.0557
     60 H26         4.2355   -0.5582   -1.7408 H         1 <0>         0.4548
@<TRIPOS>BOND
     1    1    9 ar
     2    1    2 ar
     3    1   36 1
     4    2    3 ar
     5    2   37 1
     6    3    4 ar
     7    3   38 1
     8    4    8 ar
     9    4    5 2
    10    5    6 1
    11    5   60 1
    12    6    7 1
    13    6   39 1
    14    6   40 1
    15    7    8 2
    16    7   10 1
    17    8    9 ar
    18    9   41 1
    19   10   15 1
    20   10   11 2
    21   11   12 1
    22   12   13 1
    23   12   42 1
    24   13   14 1
    25   13   15 1
    26   13   23 1
    27   15   16 1
    28   16   21 ar
    29   16   17 ar
    30   17   18 ar
    31   17   43 1
    32   18   19 ar
    33   18   44 1
    34   19   20 ar
    35   19   22 1
    36   20   21 ar
    37   20   45 1
    38   21   46 1
    39   23   24 1
    40   24   25 1
    41   24   47 1
    42   24   48 1
    43   25   26 2
    44   25   27 am
    45   27   28 1
    46   27   49 1
    47   28   29 1
    48   28   50 1
    49   28   51 1
    50   29   30 1
    51   29   52 1
    52   29   53 1
    53   30   31 1
    54   30   54 1
    55   30   55 1
    56   31   32 1
    57   31   56 1
    58   31   57 1
    59   32   33 1
    60   32   58 1
    61   32   59 1
    62   33   34 2
    63   33   35 1
