@<TRIPOS>MOLECULE
ZINC39606440
   68    71     0     0     0
SMALL
USER_CHARGES

@<TRIPOS>ATOM
      1 C1          2.8713   -2.7609    2.8900 C.3       1 <0>        -0.1554
      2 C2          2.0322   -2.8094    1.6115 C.3       1 <0>        -0.1195
      3 C3          0.5836   -3.1524    1.9648 C.3       1 <0>        -0.1009
      4 H1          0.5590   -4.0803    2.5364 H         1 <0>         0.0738
      5 C4         -0.0186   -2.0219    2.8015 C.3       1 <0>        -0.1531
      6 C5         -0.2281   -3.3236    0.6792 C.3       1 <0>         0.1201
      7 N1         -1.5835   -3.7683    1.0131 N.am      1 <0>        -0.7279
      8 C6         -2.4820   -3.9861    0.0324 C.2       1 <0>         0.5128
      9 O1         -2.1684   -3.8140   -1.1265 O.2       1 <0>        -0.5142
     10 C7         -3.8762   -4.4434    0.3758 C.3       1 <0>        -0.1156
     11 H2         -4.1649   -4.0729    1.3594 H         1 <0>         0.1176
     12 C8         -4.8796   -3.9622   -0.6962 C.3       1 <0>         0.1039
     13 N2         -5.0043   -5.1045   -1.6320 N.am      1 <0>        -0.6154
     14 C9         -5.0010   -6.3007   -0.7561 C.3       1 <0>         0.1104
     15 C10        -3.9613   -5.9784    0.3357 C.3       1 <0>        -0.0732
     16 C11        -2.6063   -6.5733   -0.0356 C.3       1 <0>        -0.1462
     17 C12        -2.7018   -8.1014   -0.0135 C.3       1 <0>        -0.0093
     18 N3         -3.1051   -8.5489    1.3252 N.4       1 <0>        -0.5044
     19 C13        -4.4491   -8.0482    1.6371 C.3       1 <0>        -0.0103
     20 C14        -4.4276   -6.5177    1.6845 C.3       1 <0>        -0.1334
     21 C15        -5.0992   -5.0649   -2.9758 C.2       1 <0>         0.6030
     22 O2         -5.2915   -6.0892   -3.6021 O.2       1 <0>        -0.5091
     23 C16        -4.9698   -3.7788   -3.6868 C.ar      1 <0>        -0.1989
     24 C17        -5.4551   -2.5967   -3.1153 C.ar      1 <0>        -0.0171
     25 C18        -5.3087   -1.4168   -3.8225 C.ar      1 <0>        -0.2097
     26 C19        -4.6933   -1.4379   -5.0616 C.ar      1 <0>         0.1735
     27 N4         -4.2437   -2.5633   -5.5817 N.ar      1 <0>        -0.5263
     28 C20        -4.3528   -3.7176   -4.9454 C.ar      1 <0>         0.3713
     29 O3         -3.8715   -4.8481   -5.5148 O.3       1 <0>        -0.2264
     30 C21        -3.3707   -4.7643   -6.7755 C.ar      1 <0>         0.0906
     31 C22        -2.1053   -4.2358   -6.9866 C.ar      1 <0>        -0.0984
     32 C23        -1.5979   -4.1519   -8.2686 C.ar      1 <0>        -0.0970
     33 C24        -2.3509   -4.5941   -9.3420 C.ar      1 <0>        -0.0293
     34 C25        -3.6133   -5.1211   -9.1336 C.ar      1 <0>        -0.0966
     35 C26        -4.1218   -5.2124   -7.8525 C.ar      1 <0>        -0.1000
     36 Cl1        -1.7113   -4.4871  -10.9523 Cl        1 <0>        -0.0572
     37 H3          3.9033   -2.5165    2.6382 H         1 <0>         0.0595
     38 H4          2.4704   -1.9994    3.5589 H         1 <0>         0.0591
     39 H5          2.8379   -3.7321    3.3836 H         1 <0>         0.0532
     40 H6          2.0656   -1.8382    1.1178 H         1 <0>         0.0683
     41 H7          2.4331   -3.5709    0.9425 H         1 <0>         0.0648
     42 H8         -1.0506   -2.2663    3.0532 H         1 <0>         0.0510
     43 H9          0.5597   -1.8999    3.7174 H         1 <0>         0.0653
     44 H10         0.0060   -1.0941    2.2300 H         1 <0>         0.0606
     45 H11        -0.2778   -2.3713    0.1514 H         1 <0>         0.0729
     46 H12         0.2518   -4.0672    0.0429 H         1 <0>         0.0691
     47 H13        -1.8343   -3.9059    1.9399 H         1 <0>         0.3988
     48 H14        -5.8439   -3.7374   -0.2404 H         1 <0>         0.0928
     49 H15        -4.4902   -3.0865   -1.2153 H         1 <0>         0.1035
     50 H16        -5.9849   -6.4491   -0.3112 H         1 <0>         0.0863
     51 H17        -4.7001   -7.1839   -1.3195 H         1 <0>         0.0889
     52 H18        -2.3243   -6.2407   -1.0345 H         1 <0>         0.1231
     53 H19        -1.8556   -6.2452    0.6833 H         1 <0>         0.0951
     54 H20        -3.4412   -8.4297   -0.7441 H         1 <0>         0.1349
     55 H21        -1.7308   -8.5296   -0.2623 H         1 <0>         0.1384
     56 H22        -3.1082   -9.5575    1.3544 H         1 <0>         0.4344
     57 H23        -5.1471   -8.3778    0.8675 H         1 <0>         0.1335
     58 H24        -4.7659   -8.4369    2.6049 H         1 <0>         0.1403
     59 H25        -3.7423   -6.1874    2.4651 H         1 <0>         0.0973
     60 H26        -5.4298   -6.1461    1.8982 H         1 <0>         0.1224
     61 H27        -5.9322   -2.6056   -2.1465 H         1 <0>         0.1477
     62 H28        -5.6721   -0.4868   -3.4110 H         1 <0>         0.1496
     63 H29        -4.5795   -0.5163   -5.6130 H         1 <0>         0.1707
     64 H30        -1.5176   -3.8899   -6.1491 H         1 <0>         0.1337
     65 H31        -0.6130   -3.7406   -8.4334 H         1 <0>         0.1417
     66 H32        -4.1996   -5.4653   -9.9728 H         1 <0>         0.1438
     67 H33        -5.1052   -5.6281   -7.6898 H         1 <0>         0.1400
     68 H34        -2.4500   -8.1974    2.0074 H         1 <0>         0.4272
@<TRIPOS>BOND
     1    1    2 1
     2    1   37 1
     3    1   38 1
     4    1   39 1
     5    2    3 1
     6    2   40 1
     7    2   41 1
     8    3    4 1
     9    3    5 1
    10    3    6 1
    11    5   42 1
    12    5   43 1
    13    5   44 1
    14    6    7 1
    15    6   45 1
    16    6   46 1
    17    7    8 am
    18    7   47 1
    19    8    9 2
    20    8   10 1
    21   10   11 1
    22   10   15 1
    23   10   12 1
    24   12   13 1
    25   12   48 1
    26   12   49 1
    27   13   14 1
    28   13   21 am
    29   14   15 1
    30   14   50 1
    31   14   51 1
    32   15   20 1
    33   15   16 1
    34   16   17 1
    35   16   52 1
    36   16   53 1
    37   17   18 1
    38   17   54 1
    39   17   55 1
    40   18   19 1
    41   18   56 1
    42   18   68 1
    43   19   20 1
    44   19   57 1
    45   19   58 1
    46   20   59 1
    47   20   60 1
    48   21   22 2
    49   21   23 1
    50   23   28 ar
    51   23   24 ar
    52   24   25 ar
    53   24   61 1
    54   25   26 ar
    55   25   62 1
    56   26   27 ar
    57   26   63 1
    58   27   28 ar
    59   28   29 1
    60   29   30 1
    61   30   35 ar
    62   30   31 ar
    63   31   32 ar
    64   31   64 1
    65   32   33 ar
    66   32   65 1
    67   33   34 ar
    68   33   36 1
    69   34   35 ar
    70   34   66 1
    71   35   67 1
