@<TRIPOS>MOLECULE
ZINC12502704
   50    53     0     0     0
SMALL
USER_CHARGES
N-[[(3-chlorobenzothiophene-2-carbonyl)amino]carbamothioyl]-2,2-diphenyl-acetamide
@<TRIPOS>ATOM
      1 C1         -0.8462    4.1333    0.6423 C.ar      1 <0>        -0.1112
      2 C2          0.4057    3.7442    0.2037 C.ar      1 <0>        -0.1226
      3 C3          0.6803    2.4053   -0.0032 C.ar      1 <0>        -0.1050
      4 C4         -0.2971    1.4555    0.2280 C.ar      1 <0>        -0.0763
      5 C5         -1.5508    1.8451    0.6611 C.ar      1 <0>        -0.0793
      6 C6         -1.8237    3.1836    0.8731 C.ar      1 <0>        -0.1195
      7 C7          0.0021   -0.0041    0.0020 C.3       1 <0>        -0.0180
      8 C8         -0.8171   -0.5112   -1.1568 C.ar      1 <0>        -0.0916
      9 C9         -2.1838   -0.6679   -1.0210 C.ar      1 <0>        -0.1090
     10 C10        -2.9358   -1.1285   -2.0855 C.ar      1 <0>        -0.1123
     11 C11        -2.3198   -1.4419   -3.2827 C.ar      1 <0>        -0.1116
     12 C12        -0.9523   -1.2906   -3.4167 C.ar      1 <0>        -0.1150
     13 C13        -0.2009   -0.8251   -2.3538 C.ar      1 <0>        -0.1084
     14 C14        -0.3449   -0.7860    1.2427 C.2       1 <0>         0.4973
     15 O1         -0.7911   -0.2144    2.2145 O.2       1 <0>        -0.3863
     16 N1         -0.1592   -2.1205    1.2721 N.am      1 <0>        -0.6436
     17 C15        -0.4696   -2.8198    2.3817 C.2       1 <0>         0.5155
     18 S1         -1.0996   -2.0128    3.7538 S.2       1 <0>        -0.4494
     19 N2         -0.2839   -4.1544    2.4111 N.pl3     1 <0>        -0.4524
     20 N3          0.2317   -4.8148    1.2882 N.am      1 <0>        -0.5455
     21 C16         0.4173   -6.1494    1.3176 C.2       1 <0>         0.6128
     22 O2          0.1372   -6.7807    2.3193 O.2       1 <0>        -0.4808
     23 C17         0.9576   -6.8415    0.1408 C.2       1 <0>        -0.2121
     24 C18         1.2180   -8.1678   -0.0176 C.2       1 <0>         0.0469
     25 C19         1.7359   -8.6397   -1.2386 C.ar      1 <0>        -0.1152
     26 C20         2.0654   -9.9725   -1.5960 C.ar      1 <0>        -0.0470
     27 C21         2.5660  -10.2585   -2.8253 C.ar      1 <0>        -0.1214
     28 C22         2.7742   -9.2665   -3.7761 C.ar      1 <0>        -0.0623
     29 C23         2.4673   -7.9564   -3.4699 C.ar      1 <0>        -0.0845
     30 C24         1.9585   -7.6507   -2.2254 C.ar      1 <0>        -0.0808
     31 S2          1.4419   -6.1496   -1.4311 S.3       1 <0>         0.0967
     32 Cl1         0.9066   -9.2764    1.2815 Cl        1 <0>        -0.0096
     33 H1         -1.0606    5.1793    0.8043 H         1 <0>         0.1227
     34 H2          1.1693    4.4863    0.0231 H         1 <0>         0.1238
     35 H3          1.6583    2.1013   -0.3459 H         1 <0>         0.1218
     36 H4         -2.3158    1.1034    0.8375 H         1 <0>         0.1210
     37 H5         -2.8019    3.4876    1.2154 H         1 <0>         0.1236
     38 H6          1.0619   -0.1275   -0.2207 H         1 <0>         0.1179
     39 H7         -2.6645   -0.4269   -0.0844 H         1 <0>         0.1233
     40 H8         -4.0042   -1.2470   -1.9807 H         1 <0>         0.1258
     41 H9         -2.9068   -1.8053   -4.1132 H         1 <0>         0.1252
     42 H10        -0.4709   -1.5358   -4.3518 H         1 <0>         0.1269
     43 H11         0.8675   -0.7069   -2.4585 H         1 <0>         0.1271
     44 H12         0.1977   -2.5778    0.4947 H         1 <0>         0.4026
     45 H13        -0.5072   -4.6577    3.2096 H         1 <0>         0.4595
     46 H14         0.4550   -4.3116    0.4896 H         1 <0>         0.4185
     47 H15         1.9166  -10.7689   -0.8818 H         1 <0>         0.1359
     48 H16         2.8081  -11.2821   -3.0703 H         1 <0>         0.1384
     49 H17         3.1729   -9.5191   -4.7475 H         1 <0>         0.1450
     50 H18         2.6244   -7.1761   -4.1999 H         1 <0>         0.1424
@<TRIPOS>BOND
     1    1    6 ar
     2    1    2 ar
     3    1   33 1
     4    2    3 ar
     5    2   34 1
     6    3    4 ar
     7    3   35 1
     8    4    5 ar
     9    4    7 1
    10    5    6 ar
    11    5   36 1
    12    6   37 1
    13    7    8 1
    14    7   14 1
    15    7   38 1
    16    8   13 ar
    17    8    9 ar
    18    9   10 ar
    19    9   39 1
    20   10   11 ar
    21   10   40 1
    22   11   12 ar
    23   11   41 1
    24   12   13 ar
    25   12   42 1
    26   13   43 1
    27   14   15 2
    28   14   16 am
    29   16   17 1
    30   16   44 1
    31   17   18 2
    32   17   19 1
    33   19   20 1
    34   19   45 1
    35   20   21 am
    36   20   46 1
    37   21   22 2
    38   21   23 1
    39   23   31 1
    40   23   24 2
    41   24   25 1
    42   24   32 1
    43   25   30 ar
    44   25   26 ar
    45   26   27 ar
    46   26   47 1
    47   27   28 ar
    48   27   48 1
    49   28   29 ar
    50   28   49 1
    51   29   30 ar
    52   29   50 1
    53   30   31 1
