@<TRIPOS>MOLECULE
ZINC01387906
   49    51     0     0     0
SMALL
USER_CHARGES
4-(2,4-dichlorobenzoyl)-N'-[2-(4-fluorophenoxy)ethanimidoyl]-1-methyl-pyrrole-2-carbohydrazide
@<TRIPOS>ATOM
      1 C1          0.6219    8.0877   -0.1004 C.3       1 <0>         0.0535
      2 N1          1.7017    9.0769   -0.0627 N.pl3     1 <0>        -0.3899
      3 C2          1.5402   10.3978    0.1136 C.2       1 <0>         0.1304
      4 C3          2.7868   10.9974    0.0838 C.2       1 <0>        -0.2475
      5 C4          3.7364    9.9694   -0.1157 C.2       1 <0>        -0.0710
      6 C5          3.0445    8.7980   -0.1989 C.2       1 <0>        -0.0708
      7 C6          3.6292    7.4670   -0.4049 C.2       1 <0>         0.6119
      8 O1          2.9050    6.5006   -0.5531 O.2       1 <0>        -0.5042
      9 N2          4.9683    7.3157   -0.4296 N.am      1 <0>        -0.5359
     10 N3          5.5269    6.0342   -0.5212 N.pl3     1 <0>        -0.4330
     11 C7          6.8881    5.8805   -0.5463 C.cat     1 <0>         0.5350
     12 C8          7.4889    4.5020   -0.6449 C.3       1 <0>         0.0644
     13 O2          8.9143    4.6033   -0.6538 O.3       1 <0>        -0.3187
     14 C9          9.6151    3.4414   -0.7389 C.ar      1 <0>         0.0999
     15 C10        11.0018    3.4665   -0.7524 C.ar      1 <0>        -0.1027
     16 C11        11.7128    2.2852   -0.8386 C.ar      1 <0>        -0.1108
     17 C12        11.0415    1.0764   -0.9114 C.ar      1 <0>         0.0891
     18 C13         9.6573    1.0498   -0.8981 C.ar      1 <0>        -0.1121
     19 C14         8.9439    2.2298   -0.8125 C.ar      1 <0>        -0.1701
     20 F1         11.7379   -0.0782   -0.9961 F         1 <0>        -0.1282
     21 C15         3.0708   12.4353    0.2323 C.2       1 <0>         0.4716
     22 O3          2.1698   13.2093    0.4941 O.2       1 <0>        -0.4265
     23 C16         4.4495   12.9370    0.0633 C.ar      1 <0>        -0.1302
     24 C17         5.2069   13.2976    1.1806 C.ar      1 <0>        -0.0591
     25 C18         6.4947   13.7602    1.0168 C.ar      1 <0>        -0.1038
     26 C19         7.0361   13.8782   -0.2536 C.ar      1 <0>        -0.0124
     27 C20         6.2901   13.5284   -1.3660 C.ar      1 <0>        -0.1042
     28 C21         5.0005   13.0587   -1.2157 C.ar      1 <0>        -0.0012
     29 Cl1         4.0655   12.6208   -2.6114 Cl        1 <0>        -0.0392
     30 Cl2         8.6569   14.4681   -0.4507 Cl        1 <0>        -0.0421
     31 H1          0.4989    7.6462    0.8886 H         1 <0>         0.0904
     32 H2         -0.3067    8.5745   -0.3989 H         1 <0>         0.1010
     33 H3          0.8696    7.3063   -0.8188 H         1 <0>         0.1061
     34 H4          0.5973   10.9062    0.2513 H         1 <0>         0.1971
     35 H5          4.8072   10.0896   -0.1889 H         1 <0>         0.1513
     36 H6          5.5452    8.0942   -0.3840 H         1 <0>         0.4335
     37 H7          4.9500    5.2558   -0.5669 H         1 <0>         0.4749
     38 H8          7.3655    7.8469   -0.4204 H         1 <0>         0.4358
     39 H9          7.1530    4.0241   -1.5651 H         1 <0>         0.1410
     40 H10         7.1724    3.9056    0.2107 H         1 <0>         0.1409
     41 H11        11.5257    4.4090   -0.6911 H         1 <0>         0.1481
     42 H12        12.7925    2.3045   -0.8494 H         1 <0>         0.1533
     43 H13         9.1350    0.1062   -0.9550 H         1 <0>         0.1483
     44 H14         7.8642    2.2088   -0.8027 H         1 <0>         0.1403
     45 H15         4.7852   13.2106    2.1711 H         1 <0>         0.1493
     46 H16         7.0821   14.0352    1.8803 H         1 <0>         0.1500
     47 H17         6.7175   13.6235   -2.3532 H         1 <0>         0.1521
     48 N4          7.7235    6.8940   -0.4879 N.pl3     1 <0>        -0.7338
     49 H18         8.7363    6.7265   -0.5102 H         1 <0>         0.4783
@<TRIPOS>BOND
     1    1    2 1
     2    1   31 1
     3    1   32 1
     4    1   33 1
     5    2    6 1
     6    2    3 1
     7    3    4 2
     8    3   34 1
     9    4    5 1
    10    4   21 1
    11    5    6 2
    12    5   35 1
    13    6    7 1
    14    7    8 2
    15    7    9 am
    16    9   10 1
    17    9   36 1
    18   10   11 1
    19   10   37 1
    20   11   12 1
    21   11   48 2
    22   12   13 1
    23   12   39 1
    24   12   40 1
    25   13   14 1
    26   14   19 ar
    27   14   15 ar
    28   15   16 ar
    29   15   41 1
    30   16   17 ar
    31   16   42 1
    32   17   18 ar
    33   17   20 1
    34   18   19 ar
    35   18   43 1
    36   19   44 1
    37   21   22 2
    38   21   23 1
    39   23   28 ar
    40   23   24 ar
    41   24   25 ar
    42   24   45 1
    43   25   26 ar
    44   25   46 1
    45   26   27 ar
    46   26   30 1
    47   27   28 ar
    48   27   47 1
    49   28   29 1
    50   38   48 1
    51   48   49 1
