@<TRIPOS>MOLECULE
ZINC18161391
   47    48     0     0     0
SMALL
USER_CHARGES
N-[2-[(5-bromo-2-thienyl)methylsulfanyl]ethyl]-3,4-dimethyl-5-(methylsulfamoyl)benzamide
@<TRIPOS>ATOM
      1 C1         12.4566   -2.7503   -1.4582 C.3       1 <0>        -0.1199
      2 C2         11.8217   -2.7590   -2.8249 C.ar      1 <0>        -0.1124
      3 C3         10.5431   -2.2685   -2.9931 C.ar      1 <0>        -0.0294
      4 C4          9.9549   -2.2817   -4.2586 C.ar      1 <0>        -0.1566
      5 C5         10.6692   -2.7824   -5.3484 C.ar      1 <0>         0.0377
      6 C6         11.9486   -3.2654   -5.1674 C.ar      1 <0>        -0.6834
      7 C7         12.5242   -3.2538   -3.9091 C.ar      1 <0>         0.0443
      8 C8         13.9223   -3.7831   -3.7188 C.3       1 <0>        -0.1481
      9 S1         12.8520   -3.8979   -6.5416 S.o2      1 <0>         2.6969
     10 O1         11.9916   -3.8090   -7.6690 O.2       1 <0>        -0.9495
     11 O2         14.1299   -3.2774   -6.5078 O.2       1 <0>        -0.9508
     12 N1         13.1016   -5.5111   -6.2628 N.pl3     1 <0>        -1.1199
     13 C9         11.9604   -6.4265   -6.1869 C.3       1 <0>         0.0826
     14 C10         8.5834   -1.7620   -4.4454 C.2       1 <0>         0.5622
     15 O3          8.0756   -1.7701   -5.5497 O.2       1 <0>        -0.5213
     16 N2          7.8964   -1.2792   -3.3912 N.am      1 <0>        -0.7261
     17 C11         6.5374   -0.7642   -3.5763 C.3       1 <0>         0.1367
     18 C12         5.9878   -0.2811   -2.2326 C.3       1 <0>        -0.1125
     19 S2          4.3051    0.3566   -2.4618 S.3       1 <0>        -0.2119
     20 C13         3.8045    0.8817   -0.7991 C.3       1 <0>        -0.0062
     21 C14         2.4054    1.4393   -0.8484 C.2       1 <0>        -0.1302
     22 C15         1.2238    0.7946   -0.6901 C.2       1 <0>        -0.1340
     23 C16         0.0485    1.5173   -0.7778 C.2       1 <0>        -0.1113
     24 C17         0.1133    2.8503   -1.0196 C.2       1 <0>        -0.1725
     25 S3          1.8745    3.1201   -1.1313 S.3       1 <0>         0.1228
     26 Br1        -1.2964    4.0978   -1.1999 Br        1 <0>         0.0436
     27 H1         12.9889   -1.8107   -1.3108 H         1 <0>         0.0785
     28 H2         11.6827   -2.8526   -0.6974 H         1 <0>         0.0714
     29 H3         13.1572   -3.5814   -1.3778 H         1 <0>         0.0769
     30 H4          9.9972   -1.8786   -2.1467 H         1 <0>         0.1340
     31 H5         10.2211   -2.7920   -6.3310 H         1 <0>         0.1590
     32 H6         14.6324   -2.9573   -3.7617 H         1 <0>         0.1029
     33 H7         13.9956   -4.2754   -2.7491 H         1 <0>         0.0914
     34 H8         14.1501   -4.4995   -4.5081 H         1 <0>         0.0672
     35 H9         14.0035   -5.8498   -6.1497 H         1 <0>         0.4205
     36 H10        11.2651   -6.0779   -5.4232 H         1 <0>         0.0608
     37 H11        11.4545   -6.4573   -7.1520 H         1 <0>         0.0705
     38 H12        12.3123   -7.4254   -5.9292 H         1 <0>         0.0859
     39 H13         8.3017   -1.2727   -2.5100 H         1 <0>         0.3999
     40 H14         5.8986   -1.5566   -3.9664 H         1 <0>         0.0832
     41 H15         6.5567    0.0670   -4.2810 H         1 <0>         0.0832
     42 H16         6.6266    0.5113   -1.8425 H         1 <0>         0.0915
     43 H17         5.9685   -1.1123   -1.5279 H         1 <0>         0.0917
     44 H18         4.4892    1.6496   -0.4391 H         1 <0>         0.1013
     45 H19         3.8311    0.0260   -0.1245 H         1 <0>         0.1090
     46 H20         1.2008   -0.2679   -0.4980 H         1 <0>         0.1448
     47 H21        -0.9065    1.0281   -0.6553 H         1 <0>         0.1452
@<TRIPOS>BOND
     1    1    2 1
     2    1   27 1
     3    1   28 1
     4    1   29 1
     5    2    7 ar
     6    2    3 ar
     7    3    4 ar
     8    3   30 1
     9    4    5 ar
    10    4   14 1
    11    5    6 ar
    12    5   31 1
    13    6    7 ar
    14    6    9 1
    15    7    8 1
    16    8   32 1
    17    8   33 1
    18    8   34 1
    19    9   10 2
    20    9   11 2
    21    9   12 1
    22   12   13 1
    23   12   35 1
    24   13   36 1
    25   13   37 1
    26   13   38 1
    27   14   15 2
    28   14   16 am
    29   16   17 1
    30   16   39 1
    31   17   18 1
    32   17   40 1
    33   17   41 1
    34   18   19 1
    35   18   42 1
    36   18   43 1
    37   19   20 1
    38   20   21 1
    39   20   44 1
    40   20   45 1
    41   21   25 1
    42   21   22 2
    43   22   23 1
    44   22   46 1
    45   23   24 2
    46   23   47 1
    47   24   25 1
    48   24   26 1
