@<TRIPOS>MOLECULE
ZINC62041593
   50    53     0     0     0
SMALL
USER_CHARGES

@<TRIPOS>ATOM
      1 C1          0.3965    2.1309    0.4224 C.3       1 <0>        -0.1037
      2 C2          0.2930    0.6369    0.2539 C.2       1 <0>        -0.1088
      3 C3          0.1645    0.0855   -1.0316 C.2       1 <0>        -0.0978
      4 C4          0.0718   -1.2633   -1.1802 C.2       1 <0>        -0.0745
      5 C5          0.1064   -2.0884   -0.0373 C.2       1 <0>         0.2303
      6 N1          0.0373   -3.4030    0.1116 N.2       1 <0>        -0.4755
      7 C6          0.1156   -3.7021    1.4179 C.2       1 <0>         0.1185
      8 C7          0.2380   -2.5390    2.1164 C.2       1 <0>        -0.0314
      9 N2          0.2326   -1.5207    1.2046 N.pl3     1 <0>        -0.3449
     10 C8          0.3298   -0.1654    1.3384 C.2       1 <0>         0.0563
     11 C9          0.3564   -2.4011    3.6124 C.3       1 <0>        -0.0615
     12 C10        -1.0072   -2.1510    4.2033 C.2       1 <0>         0.4968
     13 O1         -1.9795   -2.0906    3.4807 O.2       1 <0>        -0.4886
     14 N3         -1.1463   -1.9943    5.5347 N.am      1 <0>        -0.6700
     15 C11        -2.4228   -1.8627    6.0945 C.ar      1 <0>         0.1181
     16 C12        -2.6120   -1.0554    7.2107 C.ar      1 <0>        -0.1412
     17 C13        -3.8690   -0.9209    7.7683 C.ar      1 <0>        -0.1162
     18 C14        -4.9478   -1.5877    7.2203 C.ar      1 <0>        -0.0164
     19 C15        -4.7682   -2.4018    6.0974 C.ar      1 <0>        -0.1101
     20 C16        -3.4971   -2.5322    5.5326 C.ar      1 <0>        -0.0713
     21 C17        -5.9166   -3.1155    5.5091 C.2       1 <0>         0.5162
     22 O2         -5.7566   -3.8268    4.5271 O.co2     1 <0>        -0.6815
     23 O3         -7.0290   -2.9962    6.0030 O.co2     1 <0>        -0.6604
     24 Cl1        -6.5248   -1.4157    7.9253 Cl        1 <0>        -0.0460
     25 C18         0.0752   -5.0661    2.0011 C.ar      1 <0>        -0.0177
     26 C19        -0.6649   -5.3105    3.1565 C.ar      1 <0>        -0.0744
     27 C20        -0.6997   -6.5800    3.6954 C.ar      1 <0>        -0.1425
     28 C21        -0.0002   -7.6114    3.0895 C.ar      1 <0>         0.1020
     29 C22         0.7370   -7.3729    1.9413 C.ar      1 <0>        -0.1232
     30 C23         0.7723   -6.1073    1.3920 C.ar      1 <0>        -0.0611
     31 C24         1.4964   -8.4984    1.2874 C.3       1 <0>        -0.1113
     32 F1         -0.0370   -8.8531    3.6205 F         1 <0>        -0.1375
     33 H1          1.4441    2.4293    0.3825 H         1 <0>         0.0745
     34 H2         -0.1530    2.6257   -0.3785 H         1 <0>         0.0752
     35 H3         -0.0268    2.4182    1.3848 H         1 <0>         0.0697
     36 H4          0.1390    0.7297   -1.8981 H         1 <0>         0.1428
     37 H5         -0.0277   -1.6980   -2.1638 H         1 <0>         0.1528
     38 H6          0.4331    0.2690    2.3218 H         1 <0>         0.1572
     39 H7          0.7707   -3.3186    4.0302 H         1 <0>         0.1238
     40 H8          1.0140   -1.5647    3.8493 H         1 <0>         0.1036
     41 H9         -0.3620   -1.9727    6.1051 H         1 <0>         0.4068
     42 H10        -1.7727   -0.5314    7.6438 H         1 <0>         0.1241
     43 H11        -4.0086   -0.2928    8.6356 H         1 <0>         0.1284
     44 H12        -3.3520   -3.1560    4.6630 H         1 <0>         0.1450
     45 H13        -1.2100   -4.5071    3.6295 H         1 <0>         0.1327
     46 H14        -1.2726   -6.7702    4.5909 H         1 <0>         0.1419
     47 H15         1.3434   -5.9233    0.4940 H         1 <0>         0.1364
     48 H16         0.8567   -8.9913    0.5554 H         1 <0>         0.0742
     49 H17         2.3792   -8.0990    0.7880 H         1 <0>         0.0713
     50 H18         1.8028   -9.2188    2.0458 H         1 <0>         0.0690
@<TRIPOS>BOND
     1    1    2 1
     2    1   33 1
     3    1   34 1
     4    1   35 1
     5    2   10 2
     6    2    3 1
     7    3    4 2
     8    3   36 1
     9    4    5 1
    10    4   37 1
    11    5    9 1
    12    5    6 2
    13    6    7 1
    14    7    8 2
    15    7   25 1
    16    8    9 1
    17    8   11 1
    18    9   10 1
    19   10   38 1
    20   11   12 1
    21   11   39 1
    22   11   40 1
    23   12   13 2
    24   12   14 am
    25   14   15 1
    26   14   41 1
    27   15   20 ar
    28   15   16 ar
    29   16   17 ar
    30   16   42 1
    31   17   18 ar
    32   17   43 1
    33   18   19 ar
    34   18   24 1
    35   19   20 ar
    36   19   21 1
    37   20   44 1
    38   21   22 2
    39   21   23 1
    40   25   30 ar
    41   25   26 ar
    42   26   27 ar
    43   26   45 1
    44   27   28 ar
    45   27   46 1
    46   28   29 ar
    47   28   32 1
    48   29   30 ar
    49   29   31 1
    50   30   47 1
    51   31   48 1
    52   31   49 1
    53   31   50 1
