@<TRIPOS>MOLECULE
ZINC14731910
   64    68     0     0     0
SMALL
USER_CHARGES
N-[(1-morpholinocyclohexyl)methyl]-2-[(4-oxo-5,6,7,8-tetrahydro-3H-benzothiopheno[2,3-d]pyrimidin-2-yl)sulfanyl]acetamide
@<TRIPOS>ATOM
      1 C1         -2.7250    2.2770    0.6286 C.3       1 <0>        -0.1212
      2 C2         -2.3552    1.7184   -0.7469 C.3       1 <0>        -0.1249
      3 C3         -0.9087    2.0919   -1.0771 C.3       1 <0>        -0.1081
      4 C4          0.0249    1.5008   -0.0189 C.3       1 <0>         0.1067
      5 C5         -0.3448    2.0594    1.3567 C.3       1 <0>        -0.1047
      6 C6         -1.7914    1.6859    1.6869 C.3       1 <0>        -0.1228
      7 C7         -0.1183   -0.0225   -0.0060 C.3       1 <0>         0.0901
      8 N1          0.6156   -0.5723    1.1364 N.am      1 <0>        -0.7298
      9 C8          0.7548   -1.9063    1.2691 C.2       1 <0>         0.5279
     10 O1          0.2725   -2.6515    0.4427 O.2       1 <0>        -0.5259
     11 C9          1.5098   -2.4719    2.4443 C.3       1 <0>        -0.1509
     12 S1          1.5220   -4.2789    2.3405 S.3       1 <0>         0.0992
     13 C10         2.4419   -4.6627    3.7934 C.2       1 <0>         0.3644
     14 N2          2.6874   -5.9675    4.1097 N.am      1 <0>        -0.6334
     15 H1          2.3087   -6.7713    3.4612 H         1 <0>         0.4525
     16 C11         3.3898   -6.2993    5.2086 C.2       1 <0>         0.5622
     17 O2          3.6047   -7.4694    5.4748 O.2       1 <0>        -0.5189
     18 C12         3.8777   -5.2597    6.0622 C.2       1 <0>        -0.2521
     19 C13         4.6527   -5.3895    7.2976 C.2       1 <0>        -0.0465
     20 C14         4.9968   -4.2479    7.9270 C.2       1 <0>        -0.1706
     21 S2          4.3197   -2.9494    6.9283 S.3       1 <0>         0.1404
     22 C15         3.5743   -3.9471    5.6635 C.2       1 <0>         0.1174
     23 N3          2.8789   -3.6862    4.5629 N.2       1 <0>        -0.5047
     24 C16         5.7819   -4.1123    9.1960 C.3       1 <0>        -0.0380
     25 C17         5.8289   -5.4831    9.8859 C.3       1 <0>        -0.1152
     26 C18         6.2140   -6.5422    8.8489 C.3       1 <0>        -0.1228
     27 C19         5.0628   -6.7464    7.8634 C.3       1 <0>        -0.0618
     28 N4          1.4137    1.8594   -0.3358 N.3       1 <0>        -0.5199
     29 C20         1.7470    1.5013   -1.7222 C.3       1 <0>         0.0081
     30 C21         3.1799    1.9454   -2.0279 C.3       1 <0>         0.0622
     31 O3          4.0713    1.3450   -1.0843 O.3       1 <0>        -0.3828
     32 C22         3.7761    1.6731    0.2760 C.3       1 <0>         0.0614
     33 C23         2.3492    1.2263    0.6051 C.3       1 <0>        -0.0114
     34 H2         -3.7650    2.0084    0.8659 H         1 <0>         0.0642
     35 H3         -2.6221    3.3721    0.6194 H         1 <0>         0.0655
     36 H4         -2.4581    0.6233   -0.7376 H         1 <0>         0.0656
     37 H5         -3.0264    2.1433   -1.5078 H         1 <0>         0.0693
     38 H6         -0.6429    1.6903   -2.0661 H         1 <0>         0.0689
     39 H7         -0.8057    3.1870   -1.0864 H         1 <0>         0.0805
     40 H8          0.3264    1.6344    2.1175 H         1 <0>         0.0584
     41 H9         -0.2418    3.1545    1.3475 H         1 <0>         0.0804
     42 H10        -2.0572    2.0876    2.6758 H         1 <0>         0.0677
     43 H11        -1.8944    0.5908    1.6962 H         1 <0>         0.0645
     44 H12        -1.1819   -0.2901    0.0783 H         1 <0>         0.0821
     45 H13         0.2913   -0.4372   -0.9389 H         1 <0>         0.0743
     46 H14         1.0531    0.1036    1.8859 H         1 <0>         0.4250
     47 H15         2.5438   -2.0969    2.4307 H         1 <0>         0.1340
     48 H16         1.0195   -2.1616    3.3788 H         1 <0>         0.1346
     49 H17         6.8020   -3.7739    8.9617 H         1 <0>         0.0863
     50 H18         5.2935   -3.3772    9.8526 H         1 <0>         0.0843
     51 H19         6.5758   -5.4619   10.6932 H         1 <0>         0.0767
     52 H20         4.8399   -5.7155   10.3075 H         1 <0>         0.0696
     53 H21         7.1075   -6.2100    8.3000 H         1 <0>         0.0667
     54 H22         6.4291   -7.4931    9.3584 H         1 <0>         0.0726
     55 H23         4.2057   -7.2021    8.3809 H         1 <0>         0.0793
     56 H24         5.3870   -7.4031    7.0427 H         1 <0>         0.0869
     57 H25         1.6636    0.4119   -1.8497 H         1 <0>         0.0471
     58 H26         1.0506    2.0051   -2.4086 H         1 <0>         0.0940
     59 H27         3.4526    1.6290   -3.0455 H         1 <0>         0.0992
     60 H28         3.2480    3.0408   -1.9539 H         1 <0>         0.0609
     61 H29         4.4860    1.1579    0.9398 H         1 <0>         0.0984
     62 H30         3.8640    2.7603    0.4183 H         1 <0>         0.0597
     63 H31         2.0962    1.5277    1.6323 H         1 <0>         0.0860
     64 H32         2.2755    0.1325    0.5153 H         1 <0>         0.0711
@<TRIPOS>BOND
     1    1    6 1
     2    1    2 1
     3    1   34 1
     4    1   35 1
     5    2    3 1
     6    2   36 1
     7    2   37 1
     8    3    4 1
     9    3   38 1
    10    3   39 1
    11    4    5 1
    12    4    7 1
    13    4   28 1
    14    5    6 1
    15    5   40 1
    16    5   41 1
    17    6   42 1
    18    6   43 1
    19    7    8 1
    20    7   44 1
    21    7   45 1
    22    8    9 am
    23    8   46 1
    24    9   10 2
    25    9   11 1
    26   11   12 1
    27   11   47 1
    28   11   48 1
    29   12   13 1
    30   13   23 2
    31   13   14 1
    32   14   15 1
    33   14   16 am
    34   16   17 2
    35   16   18 1
    36   18   22 2
    37   18   19 1
    38   19   27 1
    39   19   20 2
    40   20   21 1
    41   20   24 1
    42   21   22 1
    43   22   23 1
    44   24   25 1
    45   24   49 1
    46   24   50 1
    47   25   26 1
    48   25   51 1
    49   25   52 1
    50   26   27 1
    51   26   53 1
    52   26   54 1
    53   27   55 1
    54   27   56 1
    55   28   33 1
    56   28   29 1
    57   29   30 1
    58   29   57 1
    59   29   58 1
    60   30   31 1
    61   30   59 1
    62   30   60 1
    63   31   32 1
    64   32   33 1
    65   32   61 1
    66   32   62 1
    67   33   63 1
    68   33   64 1
