@<TRIPOS>MOLECULE
ZINC38828202
   64    67     0     0     0
SMALL
USER_CHARGES

@<TRIPOS>ATOM
      1 C1         -0.3576    2.5429    1.0583 C.3       1 <0>        -0.1530
      2 C2         -0.3070    1.0235    0.8861 C.3       1 <0>         0.0595
      3 O1          0.4110    0.4441    1.9774 O.3       1 <0>        -0.3507
      4 C3          0.5466   -0.8914    1.9771 C.2       1 <0>         0.4646
      5 O2          0.0715   -1.5466    1.0800 O.2       1 <0>        -0.5014
      6 C4          1.2915   -1.5733    3.0956 C.3       1 <0>        -0.0800
      7 C5          0.6005   -1.2707    4.4272 C.3       1 <0>        -0.1308
      8 C6          1.3801   -1.9368    5.5654 C.3       1 <0>         0.1276
      9 N1          1.5181   -3.3692    5.2690 N.pl3     1 <0>        -0.5842
     10 C7          2.0876   -3.7714    3.9757 C.3       1 <0>         0.1112
     11 C8          1.3001   -3.0847    2.8553 C.3       1 <0>        -0.1235
     12 C9          1.1240   -4.3116    6.1810 C.2       1 <0>         0.6750
     13 N2          1.1606   -5.6273    5.8356 N.am      1 <0>        -0.6563
     14 H1          1.4750   -5.8890    4.9561 H         1 <0>         0.4144
     15 C10         0.7599   -6.5689    6.7168 C.2       1 <0>         0.5723
     16 O3          0.7735   -7.7515    6.4140 O.2       1 <0>        -0.5335
     17 C11         0.3295   -6.1615    7.9834 C.2       1 <0>        -0.3526
     18 C12         0.3295   -4.8136    8.2933 C.2       1 <0>         0.4882
     19 N3          0.7234   -3.9243    7.3738 N.2       1 <0>        -0.6104
     20 N4         -0.0504   -4.3877    9.5542 N.am      1 <0>        -0.6390
     21 C13        -0.1732   -5.2588   10.5700 C.2       1 <0>         0.5318
     22 O4         -0.6106   -4.8791   11.6353 O.2       1 <0>        -0.5006
     23 C14         0.2254   -6.7011   10.4008 C.3       1 <0>        -0.1353
     24 C15        -0.1383   -7.1754    8.9926 C.3       1 <0>        -0.0209
     25 H2          0.3443   -8.1328    8.7960 H         1 <0>         0.1322
     26 C16        -1.6330   -7.3361    8.8870 C.2       1 <0>         0.5140
     27 O5         -2.2564   -6.6898    8.0715 O.2       1 <0>        -0.5038
     28 N5         -2.2772   -8.1978    9.6987 N.am      1 <0>        -0.6725
     29 C17        -3.6479   -8.4298    9.5276 C.ar      1 <0>         0.1339
     30 C18        -4.4499   -8.6966   10.6295 C.ar      1 <0>        -0.1247
     31 C19        -5.8008   -8.9252   10.4609 C.ar      1 <0>        -0.1252
     32 C20        -6.3578   -8.8883    9.1893 C.ar      1 <0>         0.1275
     33 C21        -5.5558   -8.6215    8.0874 C.ar      1 <0>        -0.1001
     34 C22        -4.2060   -8.3873    8.2567 C.ar      1 <0>        -0.0991
     35 N6         -7.7285   -9.1207    9.0181 N.am      1 <0>        -0.6738
     36 C23        -8.1739   -9.7350    7.9042 C.2       1 <0>         0.5085
     37 O6         -7.3829  -10.1694    7.0937 O.2       1 <0>        -0.5252
     38 C24        -9.6546   -9.8822    7.6657 C.3       1 <0>        -0.1701
     39 H3          0.6572    2.9404    1.0775 H         1 <0>         0.0675
     40 H4         -0.9052    2.9849    0.2259 H         1 <0>         0.0810
     41 H5         -0.8607    2.7860    1.9942 H         1 <0>         0.0676
     42 H6         -1.3218    0.6260    0.8670 H         1 <0>         0.0683
     43 H7          0.1961    0.7804   -0.0497 H         1 <0>         0.0685
     44 H8          2.3168   -1.2047    3.1268 H         1 <0>         0.1171
     45 H9          0.5740   -0.1928    4.5866 H         1 <0>         0.1000
     46 H10        -0.4170   -1.6610    4.4060 H         1 <0>         0.0780
     47 H11         2.3680   -1.4835    5.6459 H         1 <0>         0.0844
     48 H12         0.8392   -1.8081    6.5029 H         1 <0>         0.1157
     49 H13         3.1332   -3.4676    3.9265 H         1 <0>         0.0948
     50 H14         2.0136   -4.8531    3.8643 H         1 <0>         0.0872
     51 H15         0.2760   -3.4579    2.8489 H         1 <0>         0.0838
     52 H16         1.7715   -3.2979    1.8959 H         1 <0>         0.0972
     53 H17        -0.2303   -3.4468    9.7069 H         1 <0>         0.4196
     54 H18         1.3006   -6.8001   10.5503 H         1 <0>         0.1251
     55 H19        -0.2997   -7.3111   11.1359 H         1 <0>         0.1161
     56 H20        -1.7915   -8.6574   10.4015 H         1 <0>         0.4104
     57 H21        -4.0166   -8.7256   11.6184 H         1 <0>         0.1313
     58 H22        -6.4244   -9.1330   11.3178 H         1 <0>         0.1303
     59 H23        -5.9890   -8.5933    7.0985 H         1 <0>         0.1363
     60 H24        -3.5832   -8.1750    7.4002 H         1 <0>         0.1373
     61 H25        -8.3571   -8.8396    9.7013 H         1 <0>         0.4112
     62 H26       -10.2024   -9.4347    8.4951 H         1 <0>         0.0785
     63 H27        -9.9250   -9.3783    6.7378 H         1 <0>         0.0995
     64 H28        -9.9074  -10.9399    7.5919 H         1 <0>         0.0990
@<TRIPOS>BOND
     1    1    2 1
     2    1   39 1
     3    1   40 1
     4    1   41 1
     5    2    3 1
     6    2   42 1
     7    2   43 1
     8    3    4 1
     9    4    5 2
    10    4    6 1
    11    6   11 1
    12    6    7 1
    13    6   44 1
    14    7    8 1
    15    7   45 1
    16    7   46 1
    17    8    9 1
    18    8   47 1
    19    8   48 1
    20    9   10 1
    21    9   12 1
    22   10   11 1
    23   10   49 1
    24   10   50 1
    25   11   51 1
    26   11   52 1
    27   12   19 2
    28   12   13 1
    29   13   14 1
    30   13   15 am
    31   15   16 2
    32   15   17 1
    33   17   24 1
    34   17   18 2
    35   18   19 1
    36   18   20 1
    37   20   21 am
    38   20   53 1
    39   21   22 2
    40   21   23 1
    41   23   24 1
    42   23   54 1
    43   23   55 1
    44   24   25 1
    45   24   26 1
    46   26   27 2
    47   26   28 am
    48   28   29 1
    49   28   56 1
    50   29   34 ar
    51   29   30 ar
    52   30   31 ar
    53   30   57 1
    54   31   32 ar
    55   31   58 1
    56   32   33 ar
    57   32   35 1
    58   33   34 ar
    59   33   59 1
    60   34   60 1
    61   35   36 am
    62   35   61 1
    63   36   37 2
    64   36   38 1
    65   38   62 1
    66   38   63 1
    67   38   64 1
