@<TRIPOS>MOLECULE
ZINC35105808
   69    72     0     0     0
SMALL
USER_CHARGES

@<TRIPOS>ATOM
      1 C1          2.9274    2.5912    2.4548 C.3       1 <0>        -0.1491
      2 C2          2.6149    1.1677    1.9892 C.3       1 <0>        -0.1385
      3 C3          1.1363    1.0685    1.6088 C.3       1 <0>         0.0957
      4 N1          0.8371   -0.2946    1.1629 N.pl3     1 <0>        -0.4285
      5 C4          0.9245   -0.7726   -0.1315 C.2       1 <0>         0.0414
      6 C5          0.5514   -2.1013   -0.0810 C.2       1 <0>         0.0719
      7 N2          0.2545   -2.3949    1.2002 N.2       1 <0>        -0.4715
      8 C6          0.4264   -1.3298    1.9469 C.2       1 <0>         0.1990
      9 S1          0.1637   -1.2503    3.6874 S.3       1 <0>        -0.0069
     10 C7         -0.3663   -2.9282    4.1283 C.3       1 <0>        -0.1106
     11 C8         -0.6320   -3.0001    5.6333 C.3       1 <0>         0.1291
     12 N3         -1.0600   -4.3552    5.9894 N.pl3     1 <0>        -1.1127
     13 S2         -1.0602   -4.8337    7.5748 S.o2      1 <0>         2.6956
     14 O1         -1.5450   -6.1693    7.5958 O.2       1 <0>        -0.9492
     15 O2          0.2074   -4.4749    8.1074 O.2       1 <0>        -0.9504
     16 C9         -2.2564   -3.8505    8.4156 C.ar      1 <0>        -0.6946
     17 C10        -3.5253   -4.3497    8.6425 C.ar      1 <0>         0.0327
     18 C11        -4.4638   -3.5783    9.3022 C.ar      1 <0>        -0.1554
     19 C12        -4.1332   -2.3079    9.7353 C.ar      1 <0>        -0.0166
     20 C13        -2.8640   -1.8090    9.5091 C.ar      1 <0>        -0.1549
     21 C14        -1.9242   -2.5820    8.8533 C.ar      1 <0>         0.0320
     22 C15        -0.5390   -2.0402    8.6114 C.3       1 <0>        -0.1966
     23 C16        -5.1566   -1.4666   10.4535 C.3       1 <0>        -0.1259
     24 C17        -3.8857   -5.7347    8.1703 C.3       1 <0>        -0.1425
     25 C18         0.4884   -3.0355   -1.2287 C.ar      1 <0>        -0.0056
     26 C19         0.1055   -2.5731   -2.4877 C.ar      1 <0>        -0.1001
     27 C20         0.0487   -3.4482   -3.5529 C.ar      1 <0>        -0.1192
     28 C21         0.3702   -4.7819   -3.3740 C.ar      1 <0>        -0.1162
     29 C22         0.7507   -5.2465   -2.1277 C.ar      1 <0>        -0.1211
     30 C23         0.8173   -4.3800   -1.0561 C.ar      1 <0>        -0.0925
     31 C24         1.3344   -0.0139   -1.3288 C.ar      1 <0>        -0.0173
     32 C25         0.8310    1.2701   -1.5526 C.ar      1 <0>        -0.1131
     33 C26         1.2189    1.9736   -2.6737 C.ar      1 <0>        -0.1155
     34 C27         2.1046    1.4106   -3.5758 C.ar      1 <0>        -0.1113
     35 C28         2.6070    0.1392   -3.3609 C.ar      1 <0>        -0.1137
     36 C29         2.2324   -0.5738   -2.2412 C.ar      1 <0>        -0.0865
     37 H1          3.9808    2.6618    2.7258 H         1 <0>         0.0652
     38 H2          2.7118    3.2926    1.6488 H         1 <0>         0.0582
     39 H3          2.3123    2.8333    3.3214 H         1 <0>         0.0605
     40 H4          3.2301    0.9256    1.1225 H         1 <0>         0.0706
     41 H5          2.8306    0.4662    2.7951 H         1 <0>         0.0751
     42 H6          0.5212    1.3106    2.4754 H         1 <0>         0.0986
     43 H7          0.9207    1.7700    0.8028 H         1 <0>         0.0992
     44 H8         -1.2791   -3.1752    3.5860 H         1 <0>         0.1051
     45 H9          0.4171   -3.6381    3.8632 H         1 <0>         0.1075
     46 H10         0.2808   -2.7532    6.1756 H         1 <0>         0.0955
     47 H11        -1.4154   -2.2902    5.8984 H         1 <0>         0.0784
     48 H12        -1.3433   -4.9721    5.2966 H         1 <0>         0.4224
     49 H13        -5.4554   -3.9681    9.4788 H         1 <0>         0.1317
     50 H14        -2.6058   -0.8163    9.8472 H         1 <0>         0.1313
     51 H15        -0.4768   -1.6406    7.5991 H         1 <0>         0.0812
     52 H16        -0.3287   -1.2469    9.3287 H         1 <0>         0.0808
     53 H17         0.1905   -2.8411    8.7312 H         1 <0>         0.1352
     54 H18        -5.0911   -1.6515   11.5257 H         1 <0>         0.0802
     55 H19        -4.9647   -0.4123   10.2543 H         1 <0>         0.0731
     56 H20        -6.1542   -1.7275   10.1001 H         1 <0>         0.0731
     57 H21        -3.5430   -6.4681    8.9003 H         1 <0>         0.0932
     58 H22        -4.9674   -5.8107    8.0592 H         1 <0>         0.0711
     59 H23        -3.4074   -5.9271    7.2100 H         1 <0>         0.0916
     60 H24        -0.1464   -1.5324   -2.6284 H         1 <0>         0.1217
     61 H25        -0.2477   -3.0915   -4.5283 H         1 <0>         0.1234
     62 H26         0.3235   -5.4632   -4.2107 H         1 <0>         0.1222
     63 H27         1.0002   -6.2888   -1.9942 H         1 <0>         0.1238
     64 H28         1.1189   -4.7429   -0.0846 H         1 <0>         0.1243
     65 H29         0.1395    1.7105   -0.8496 H         1 <0>         0.1196
     66 H30         0.8303    2.9660   -2.8481 H         1 <0>         0.1261
     67 H31         2.4049    1.9661   -4.4519 H         1 <0>         0.1254
     68 H32         3.2975   -0.2940   -4.0693 H         1 <0>         0.1278
     69 H33         2.6287   -1.5641   -2.0724 H         1 <0>         0.1261
@<TRIPOS>BOND
     1    1    2 1
     2    1   37 1
     3    1   38 1
     4    1   39 1
     5    2    3 1
     6    2   40 1
     7    2   41 1
     8    3    4 1
     9    3   42 1
    10    3   43 1
    11    4    8 1
    12    4    5 1
    13    5    6 2
    14    5   31 1
    15    6    7 1
    16    6   25 1
    17    7    8 2
    18    8    9 1
    19    9   10 1
    20   10   11 1
    21   10   44 1
    22   10   45 1
    23   11   12 1
    24   11   46 1
    25   11   47 1
    26   12   13 1
    27   12   48 1
    28   13   14 2
    29   13   15 2
    30   13   16 1
    31   16   21 ar
    32   16   17 ar
    33   17   18 ar
    34   17   24 1
    35   18   19 ar
    36   18   49 1
    37   19   20 ar
    38   19   23 1
    39   20   21 ar
    40   20   50 1
    41   21   22 1
    42   22   51 1
    43   22   52 1
    44   22   53 1
    45   23   54 1
    46   23   55 1
    47   23   56 1
    48   24   57 1
    49   24   58 1
    50   24   59 1
    51   25   30 ar
    52   25   26 ar
    53   26   27 ar
    54   26   60 1
    55   27   28 ar
    56   27   61 1
    57   28   29 ar
    58   28   62 1
    59   29   30 ar
    60   29   63 1
    61   30   64 1
    62   31   36 ar
    63   31   32 ar
    64   32   33 ar
    65   32   65 1
    66   33   34 ar
    67   33   66 1
    68   34   35 ar
    69   34   67 1
    70   35   36 ar
    71   35   68 1
    72   36   69 1
