@<TRIPOS>MOLECULE
ZINC20588811
   50    53     0     0     0
SMALL
USER_CHARGES
2-bromo-N-(6-fluoro-1,3-benzothiazol-2-yl)-N-(3-morpholinopropyl)benzamide
@<TRIPOS>ATOM
      1 C1          2.3600    0.2109   -0.1777 C.ar      1 <0>        -0.1088
      2 C2          2.3297    1.3719   -0.9307 C.ar      1 <0>        -0.0829
      3 C3          1.1336    1.8411   -1.4422 C.ar      1 <0>        -0.0932
      4 C4         -0.0398    1.1528   -1.2043 C.ar      1 <0>        -0.0421
      5 C5         -0.0158   -0.0195   -0.4451 C.ar      1 <0>        -0.1073
      6 C6          1.1961   -0.4867    0.0679 C.ar      1 <0>        -0.1090
      7 C7         -1.2666   -0.7619   -0.1864 C.2       1 <0>         0.5470
      8 O1         -2.3140   -0.1599   -0.0520 O.2       1 <0>        -0.4275
      9 N1         -1.2464   -2.1067   -0.0996 N.am      1 <0>        -0.5014
     10 C8          0.0317   -2.8226   -0.1153 C.3       1 <0>         0.0621
     11 C9          0.3675   -3.2980    1.2996 C.3       1 <0>        -0.1505
     12 C10         1.7022   -4.0457    1.2832 C.3       1 <0>         0.0569
     13 N2          2.0246   -4.5021    2.6417 N.3       1 <0>        -0.5345
     14 C11         2.2810   -3.3619    3.5336 C.3       1 <0>         0.0112
     15 C12         2.5533   -3.8790    4.9487 C.3       1 <0>         0.0605
     16 O2          3.6504   -4.7957    4.9129 O.3       1 <0>        -0.3839
     17 C13         3.4344   -5.9188    4.0543 C.3       1 <0>         0.0603
     18 C14         3.1710   -5.4224    2.6302 C.3       1 <0>         0.0172
     19 C15        -2.4336   -2.8117    0.0046 C.2       1 <0>         0.3792
     20 N3         -3.6630   -2.3535    0.0348 N.2       1 <0>        -0.5042
     21 C16        -4.7382   -3.1652    0.1405 C.ar      1 <0>         0.0970
     22 C17        -6.1043   -2.8027    0.1841 C.ar      1 <0>        -0.0354
     23 C18        -7.0798   -3.7586    0.2947 C.ar      1 <0>        -0.1359
     24 C19        -6.7663   -5.1102    0.3676 C.ar      1 <0>         0.1156
     25 C20        -5.4384   -5.5002    0.3277 C.ar      1 <0>        -0.0942
     26 C21        -4.4558   -4.5480    0.2170 C.ar      1 <0>        -0.1340
     27 S1         -2.6818   -4.5775    0.1242 S.3       1 <0>         0.0287
     28 F1         -7.7463   -6.0337    0.4759 F         1 <0>        -0.1266
     29 Br1        -1.6735    1.7914   -1.9109 Br        1 <0>        -0.0114
     30 H1          3.2978   -0.1498    0.2184 H         1 <0>         0.1396
     31 H2          3.2445    1.9138   -1.1200 H         1 <0>         0.1415
     32 H3          1.1172    2.7475   -2.0292 H         1 <0>         0.1445
     33 H4          1.2218   -1.3925    0.6554 H         1 <0>         0.1561
     34 H5         -0.0429   -3.6913   -0.7859 H         1 <0>         0.0961
     35 H6          0.8246   -2.1497   -0.4738 H         1 <0>         0.1348
     36 H7          0.4421   -2.4293    1.9702 H         1 <0>         0.0785
     37 H8         -0.4253   -3.9709    1.6582 H         1 <0>         0.0917
     38 H9          1.6276   -4.9145    0.6126 H         1 <0>         0.0865
     39 H10         2.4951   -3.3728    0.9247 H         1 <0>         0.0426
     40 H11         3.1558   -2.8022    3.1710 H         1 <0>         0.0460
     41 H12         1.4019   -2.7008    3.5455 H         1 <0>         0.0882
     42 H13         2.8011   -3.0331    5.6068 H         1 <0>         0.1004
     43 H14         1.6577   -4.3907    5.3308 H         1 <0>         0.0615
     44 H15         4.3264   -6.5625    4.0612 H         1 <0>         0.1010
     45 H16         2.5660   -6.4918    4.4115 H         1 <0>         0.0617
     46 H17         2.9473   -6.2786    1.9769 H         1 <0>         0.0897
     47 H18         4.0601   -4.8959    2.2530 H         1 <0>         0.0456
     48 H19        -6.3820   -1.7605    0.1296 H         1 <0>         0.1458
     49 H20        -8.1157   -3.4546    0.3254 H         1 <0>         0.1485
     50 H21        -5.1773   -6.5467    0.3829 H         1 <0>         0.1467
@<TRIPOS>BOND
     1    1    6 ar
     2    1    2 ar
     3    1   30 1
     4    2    3 ar
     5    2   31 1
     6    3    4 ar
     7    3   32 1
     8    4    5 ar
     9    4   29 1
    10    5    6 ar
    11    5    7 1
    12    6   33 1
    13    7    8 2
    14    7    9 am
    15    9   10 1
    16    9   19 1
    17   10   11 1
    18   10   34 1
    19   10   35 1
    20   11   12 1
    21   11   36 1
    22   11   37 1
    23   12   13 1
    24   12   38 1
    25   12   39 1
    26   13   18 1
    27   13   14 1
    28   14   15 1
    29   14   40 1
    30   14   41 1
    31   15   16 1
    32   15   42 1
    33   15   43 1
    34   16   17 1
    35   17   18 1
    36   17   44 1
    37   17   45 1
    38   18   46 1
    39   18   47 1
    40   19   27 1
    41   19   20 2
    42   20   21 1
    43   21   26 ar
    44   21   22 ar
    45   22   23 ar
    46   22   48 1
    47   23   24 ar
    48   23   49 1
    49   24   25 ar
    50   24   28 1
    51   25   26 ar
    52   25   50 1
    53   26   27 1
