@<TRIPOS>MOLECULE
ZINC13343576
   54    58     0     0     0
SMALL
USER_CHARGES
4-[(E)-2-[3-(4-methoxyphenyl)-4-oxo-5,6,7,8-tetrahydrobenzothiopheno[2,3-d]pyrimidin-2-yl]vinyl]benzoic acid
@<TRIPOS>ATOM
      1 C1         -3.6173    3.2747  -10.3972 C.3       1 <0>         0.0236
      2 O1         -2.3215    3.0693   -9.8309 O.3       1 <0>        -0.3113
      3 C2         -2.1551    3.4187   -8.5277 C.ar      1 <0>         0.1481
      4 C3         -0.9221    3.2457   -7.9154 C.ar      1 <0>        -0.1394
      5 C4         -0.7526    3.5995   -6.5917 C.ar      1 <0>        -0.0533
      6 C5         -1.8165    4.1291   -5.8732 C.ar      1 <0>         0.0574
      7 C6         -3.0517    4.2971   -6.4851 C.ar      1 <0>        -0.0527
      8 C7         -3.2184    3.9478   -7.8104 C.ar      1 <0>        -0.1976
      9 N1         -1.6452    4.4884   -4.5297 N.am      1 <0>        -0.4798
     10 C8         -1.2363    5.7627   -4.2396 C.2       1 <0>         0.4602
     11 N2         -1.0481    6.1884   -2.9949 N.2       1 <0>        -0.4800
     12 C9         -1.2740    5.3261   -2.0163 C.2       1 <0>         0.1144
     13 C10        -1.6982    3.9907   -2.2187 C.2       1 <0>        -0.2754
     14 C11        -1.8916    3.5608   -3.5749 C.2       1 <0>         0.5660
     15 O2         -2.2556    2.4304   -3.8496 O.2       1 <0>        -0.5078
     16 C12        -1.8943    3.1944   -1.0218 C.2       1 <0>        -0.0397
     17 C13        -1.6536    3.8072    0.1627 C.2       1 <0>        -0.1884
     18 S1         -1.1574    5.4583   -0.2599 S.3       1 <0>         0.1382
     19 C14        -1.7803    3.2149    1.5323 C.3       1 <0>        -0.0331
     20 C15        -2.5856    1.9117    1.4243 C.3       1 <0>        -0.1140
     21 C16        -2.0133    1.0769    0.2750 C.3       1 <0>        -0.1215
     22 C17        -2.3486    1.7376   -1.0622 C.3       1 <0>        -0.0590
     23 C18        -0.9959    6.6926   -5.3446 C.2       1 <0>        -0.1978
     24 C19        -0.4923    7.9191   -5.0965 C.2       1 <0>         0.0407
     25 C20        -0.2508    8.8534   -6.2068 C.ar      1 <0>        -0.1091
     26 C21        -0.5382    8.4681   -7.5214 C.ar      1 <0>        -0.1031
     27 C22        -0.3192    9.3384   -8.5511 C.ar      1 <0>        -0.0864
     28 C23         0.2029   10.6096   -8.2935 C.ar      1 <0>        -0.0833
     29 C24         0.4957   10.9932   -6.9812 C.ar      1 <0>        -0.0963
     30 C25         0.2718   10.1263   -5.9497 C.ar      1 <0>        -0.0957
     31 C26         0.4456   11.5470   -9.4075 C.2       1 <0>         0.4840
     32 O3          0.8996   12.6515   -9.1841 O.co2     1 <0>        -0.6260
     33 H1         -4.3529    2.6929   -9.8418 H         1 <0>         0.0568
     34 H2         -3.8742    4.3325  -10.3426 H         1 <0>         0.0612
     35 H3         -3.6132    2.9552  -11.4394 H         1 <0>         0.1033
     36 H4         -0.0948    2.8339   -8.4744 H         1 <0>         0.1427
     37 H5          0.2070    3.4642   -6.1151 H         1 <0>         0.1347
     38 H6         -3.8807    4.7047   -5.9256 H         1 <0>         0.1301
     39 H7         -4.1778    4.0825   -8.2877 H         1 <0>         0.1390
     40 H8         -0.7890    3.0028    1.9329 H         1 <0>         0.0821
     41 H9         -2.2981    3.9151    2.1878 H         1 <0>         0.0807
     42 H10        -3.6318    2.1421    1.2233 H         1 <0>         0.0682
     43 H11        -2.5040    1.3542    2.3573 H         1 <0>         0.0730
     44 H12        -2.4460    0.0768    0.3034 H         1 <0>         0.0691
     45 H13        -0.9309    1.0062    0.3827 H         1 <0>         0.0653
     46 H14        -1.8308    1.2160   -1.8671 H         1 <0>         0.0851
     47 H15        -3.4244    1.6936   -1.2314 H         1 <0>         0.0769
     48 H16        -1.2219    6.3966   -6.3584 H         1 <0>         0.1456
     49 H17        -0.2663    8.2151   -4.0828 H         1 <0>         0.1410
     50 H18        -0.9373    7.4846   -7.7211 H         1 <0>         0.1203
     51 H19        -0.5447    9.0428   -9.5651 H         1 <0>         0.1350
     52 H20         0.8993   11.9752   -6.7831 H         1 <0>         0.1325
     53 H21         0.4984   10.4226   -4.9362 H         1 <0>         0.1246
     54 O4          0.1636   11.1777  -10.6723 O.co2     1 <0>        -0.7490
@<TRIPOS>BOND
     1    1    2 1
     2    1   33 1
     3    1   34 1
     4    1   35 1
     5    2    3 1
     6    3    8 ar
     7    3    4 ar
     8    4    5 ar
     9    4   36 1
    10    5    6 ar
    11    5   37 1
    12    6    7 ar
    13    6    9 1
    14    7    8 ar
    15    7   38 1
    16    8   39 1
    17    9   14 am
    18    9   10 1
    19   10   11 2
    20   10   23 1
    21   11   12 1
    22   12   18 1
    23   12   13 2
    24   13   14 1
    25   13   16 1
    26   14   15 2
    27   16   22 1
    28   16   17 2
    29   17   18 1
    30   17   19 1
    31   19   20 1
    32   19   40 1
    33   19   41 1
    34   20   21 1
    35   20   42 1
    36   20   43 1
    37   21   22 1
    38   21   44 1
    39   21   45 1
    40   22   46 1
    41   22   47 1
    42   23   24 2
    43   23   48 1
    44   24   25 1
    45   24   49 1
    46   25   30 ar
    47   25   26 ar
    48   26   27 ar
    49   26   50 1
    50   27   28 ar
    51   27   51 1
    52   28   29 ar
    53   28   31 1
    54   29   30 ar
    55   29   52 1
    56   30   53 1
    57   31   32 2
    58   31   54 1
