@<TRIPOS>MOLECULE
ZINC29124277
   56    59     0     0     0
SMALL
USER_CHARGES
N'-methoxy-4-[6-[4-(N'-methoxycarbamimidoyl)phenyl]-8-methyl-imidazo[1,2-a]pyridin-2-yl]benzamidine
@<TRIPOS>ATOM
      1 C1         -2.5875    5.7647    0.3914 C.3       1 <0>        -0.1065
      2 C2         -2.5353    4.2615    0.2979 C.2       1 <0>        -0.0348
      3 C3         -1.3399    3.6188    0.2807 C.2       1 <0>        -0.1020
      4 C4         -1.3067    2.2073    0.1877 C.2       1 <0>        -0.0581
      5 C5         -2.4689    1.5008    0.1272 C.2       1 <0>         0.0569
      6 N1         -3.6715    2.1433    0.1506 N.pl3     1 <0>        -0.3555
      7 C6         -3.7294    3.5113    0.2350 C.2       1 <0>         0.2315
      8 N2         -5.0032    3.8738    0.2400 N.2       1 <0>        -0.4721
      9 C7         -5.7734    2.7764    0.1610 C.2       1 <0>         0.0954
     10 C8         -4.9586    1.6855    0.1043 C.2       1 <0>        -0.0767
     11 C9         -7.2558    2.7555    0.1385 C.ar      1 <0>         0.0054
     12 C10        -7.9346    1.5403    0.0468 C.ar      1 <0>        -0.1103
     13 C11        -9.3113    1.5199    0.0316 C.ar      1 <0>        -0.0945
     14 C12       -10.0276    2.7164    0.0964 C.ar      1 <0>        -0.0934
     15 C13        -9.3476    3.9327    0.1823 C.ar      1 <0>        -0.0709
     16 C14        -7.9710    3.9514    0.2032 C.ar      1 <0>        -0.0914
     17 C15       -11.5066    2.6955    0.0744 C.2       1 <0>         0.4234
     18 N3        -12.1648    3.7165   -0.3921 N.2       1 <0>        -0.4371
     19 O1        -11.4695    4.7880   -1.0031 O.3       1 <0>        -0.2358
     20 C16       -12.3167    5.8402   -1.4690 C.3       1 <0>         0.0431
     21 N4        -12.1907    1.5894    0.5502 N.pl3     1 <0>        -0.8553
     22 C17        -0.0054    1.4968    0.1623 C.ar      1 <0>        -0.0193
     23 C18         1.1855    2.2209    0.2186 C.ar      1 <0>        -0.1061
     24 C19         2.3942    1.5620    0.1892 C.ar      1 <0>        -0.0647
     25 C20         2.4276    0.1690    0.1038 C.ar      1 <0>        -0.0439
     26 C21         1.2354   -0.5552    0.0476 C.ar      1 <0>        -0.0869
     27 C22         0.0273    0.1048    0.0765 C.ar      1 <0>        -0.1139
     28 C23         3.7258   -0.5395    0.0733 C.2       1 <0>         0.4162
     29 N5          4.8369    0.1357    0.1257 N.2       1 <0>        -0.4268
     30 O2          6.0796   -0.5425    0.0965 O.3       1 <0>        -0.2541
     31 C24         7.2154    0.3223    0.1607 C.3       1 <0>         0.0500
     32 N6          3.7587   -1.9215   -0.0110 N.pl3     1 <0>        -0.8921
     33 H1         -1.5638    6.1654    0.4301 H         1 <0>         0.0744
     34 H2         -3.1303    6.0568    1.3025 H         1 <0>         0.0802
     35 H3         -3.1065    6.1691   -0.4902 H         1 <0>         0.0803
     36 H4         -0.4197    4.1816    0.3333 H         1 <0>         0.1479
     37 H5         -2.4383    0.4233    0.0604 H         1 <0>         0.1676
     38 H6         -5.2710    0.6539    0.0352 H         1 <0>         0.1873
     39 H7         -7.3803    0.6151   -0.0081 H         1 <0>         0.1279
     40 H8         -9.8368    0.5787   -0.0353 H         1 <0>         0.1290
     41 H9         -9.9012    4.8586    0.2328 H         1 <0>         0.1427
     42 H10        -7.4448    4.8923    0.2694 H         1 <0>         0.1367
     43 H11       -11.7028    6.6292   -1.9279 H         1 <0>         0.0923
     44 H12       -12.8799    6.2596   -0.6223 H         1 <0>         0.0448
     45 H13       -13.0195    5.4417   -2.2155 H         1 <0>         0.0448
     46 H14       -13.2905    1.5739    0.5338 H         1 <0>         0.4284
     47 H15       -11.6343    0.7263    0.9445 H         1 <0>         0.4308
     48 H16         1.1595    3.2985    0.2850 H         1 <0>         0.1361
     49 H17         3.3162    2.1228    0.2331 H         1 <0>         0.1427
     50 H18         1.2606   -1.6329   -0.0181 H         1 <0>         0.1302
     51 H19        -0.8951   -0.4552    0.0330 H         1 <0>         0.1306
     52 H20         8.1361   -0.2790    0.1330 H         1 <0>         0.0915
     53 H21         7.1833    0.9009    1.0957 H         1 <0>         0.0455
     54 H22         7.2011    1.0107   -0.6972 H         1 <0>         0.0455
     55 H23         4.7241   -2.4483   -0.0337 H         1 <0>         0.4311
     56 H24         2.8195   -2.4923   -0.0553 H         1 <0>         0.4119
@<TRIPOS>BOND
     1    1    2 1
     2    1   33 1
     3    1   34 1
     4    1   35 1
     5    2    7 1
     6    2    3 2
     7    3    4 1
     8    3   36 1
     9    4    5 2
    10    4   22 1
    11    5    6 1
    12    5   37 1
    13    6   10 1
    14    6    7 1
    15    7    8 2
    16    8    9 1
    17    9   10 2
    18    9   11 1
    19   10   38 1
    20   11   16 ar
    21   11   12 ar
    22   12   13 ar
    23   12   39 1
    24   13   14 ar
    25   13   40 1
    26   14   15 ar
    27   14   17 1
    28   15   16 ar
    29   15   41 1
    30   16   42 1
    31   17   18 2
    32   17   21 1
    33   18   19 1
    34   19   20 1
    35   20   43 1
    36   20   44 1
    37   20   45 1
    38   21   46 1
    39   21   47 1
    40   22   27 ar
    41   22   23 ar
    42   23   24 ar
    43   23   48 1
    44   24   25 ar
    45   24   49 1
    46   25   26 ar
    47   25   28 1
    48   26   27 ar
    49   26   50 1
    50   27   51 1
    51   28   29 2
    52   28   32 1
    53   29   30 1
    54   30   31 1
    55   31   52 1
    56   31   53 1
    57   31   54 1
    58   32   55 1
    59   32   56 1
