@<TRIPOS>MOLECULE
ZINC39324486
   65    68     0     0     0
SMALL
USER_CHARGES

@<TRIPOS>ATOM
      1 C1         -0.3047    1.3502    0.2381 C.3       1 <0>        -0.1479
      2 C2         -0.0627   -0.1584    0.1572 C.3       1 <0>        -0.0925
      3 H1         -1.0077   -0.6872    0.2817 H         1 <0>         0.0776
      4 C3          0.5479   -0.5094   -1.2076 C.3       1 <0>        -0.0794
      5 C4          0.7115   -2.0130   -1.2427 C.2       1 <0>        -0.0701
      6 C5          0.4158   -2.7141   -2.3520 C.2       1 <0>        -0.0813
      7 C6          0.0891   -2.0094   -3.6031 C.ar      1 <0>        -0.0589
      8 C7          0.6973   -0.7855   -3.8976 C.ar      1 <0>        -0.1032
      9 C8          0.3901   -0.1280   -5.0698 C.ar      1 <0>        -0.1754
     10 C9         -0.5222   -0.6775   -5.9591 C.ar      1 <0>         0.1069
     11 C10        -1.1327   -1.8967   -5.6724 C.ar      1 <0>         0.0990
     12 C11        -0.8257   -2.5653   -4.5024 C.ar      1 <0>        -0.1573
     13 O1         -2.0270   -2.4313   -6.5463 O.3       1 <0>        -0.3061
     14 C12        -2.6146   -3.6838   -6.1884 C.3       1 <0>         0.0253
     15 O2         -0.8215   -0.0244   -7.1132 O.3       1 <0>        -0.3054
     16 C13        -0.1597    1.2209   -7.3443 C.3       1 <0>         0.0249
     17 C14         1.2049   -2.6904   -0.0271 C.2       1 <0>         0.0989
     18 C15         1.2931   -2.0323    1.1281 C.2       1 <0>        -0.1376
     19 C16         0.9078   -0.5802    1.2556 C.3       1 <0>        -0.0658
     20 C17         1.7889   -2.7371    2.3702 C.3       1 <0>         0.0844
     21 H2          1.1789   -2.4365    3.2220 H         1 <0>         0.0928
     22 C18         1.7024   -4.2266    2.1997 C.2       1 <0>        -0.2816
     23 C19         1.5942   -4.7747    0.9634 C.2       1 <0>         0.4402
     24 O3          1.5621   -3.9964   -0.1312 O.3       1 <0>        -0.2486
     25 N1          1.5171   -6.1386    0.8294 N.pl3     1 <0>        -0.8306
     26 C20         1.7339   -5.0759    3.3522 C.1       1 <0>         0.2735
     27 N2          1.7588   -5.7496    4.2666 N.1       1 <0>        -0.4486
     28 C21         3.2227   -2.3487    2.6235 C.ar      1 <0>        -0.0701
     29 C22         4.1881   -2.6146    1.6702 C.ar      1 <0>        -0.0978
     30 C23         5.5048   -2.2603    1.8979 C.ar      1 <0>        -0.1700
     31 C24         5.8594   -1.6367    3.0834 C.ar      1 <0>         0.0978
     32 C25         4.8876   -1.3687    4.0427 C.ar      1 <0>         0.1014
     33 C26         3.5689   -1.7221    3.8062 C.ar      1 <0>        -0.1642
     34 O4          5.2307   -0.7569    5.2078 O.3       1 <0>        -0.3064
     35 C27         4.1809   -0.5133    6.1463 C.3       1 <0>         0.0258
     36 O5          7.1543   -1.2879    3.3091 O.3       1 <0>        -0.3071
     37 C28         8.0975   -1.5944    2.2804 C.3       1 <0>         0.0264
     38 H3          0.6413    1.8771    0.1134 H         1 <0>         0.0581
     39 H4         -0.9945    1.6503   -0.5507 H         1 <0>         0.0590
     40 H5         -0.7333    1.5979    1.2092 H         1 <0>         0.0588
     41 H6         -0.1196   -0.1889   -2.0075 H         1 <0>         0.0950
     42 H7          1.5191   -0.0267   -1.3161 H         1 <0>         0.0840
     43 H8          0.4179   -3.7938   -2.3250 H         1 <0>         0.1273
     44 H9          1.4072   -0.3551   -3.2069 H         1 <0>         0.1371
     45 H10         0.8606    0.8175   -5.2963 H         1 <0>         0.1382
     46 H11        -1.2947   -3.5127   -4.2813 H         1 <0>         0.1374
     47 H12        -1.8314   -4.4334   -6.0754 H         1 <0>         0.0552
     48 H13        -3.1534   -3.5765   -5.2470 H         1 <0>         0.0554
     49 H14        -3.3071   -3.9967   -6.9698 H         1 <0>         0.1018
     50 H15         0.9181    1.0604   -7.3696 H         1 <0>         0.0562
     51 H16        -0.4879    1.6353   -8.2975 H         1 <0>         0.1018
     52 H17        -0.4047    1.9168   -6.5419 H         1 <0>         0.0563
     53 H18         1.8076    0.0315    1.1895 H         1 <0>         0.0842
     54 H19         0.4392   -0.4177    2.2262 H         1 <0>         0.0805
     55 H20         1.5401   -6.7054    1.6163 H         1 <0>         0.4250
     56 H21         1.4396   -6.5358   -0.0522 H         1 <0>         0.4106
     57 H22         3.9130   -3.1006    0.7458 H         1 <0>         0.1213
     58 H23         6.2571   -2.4697    1.1519 H         1 <0>         0.1341
     59 H24         2.8121   -1.5118    4.5475 H         1 <0>         0.1341
     60 H25         3.4270    0.1280    5.6897 H         1 <0>         0.0553
     61 H26         3.7254   -1.4603    6.4358 H         1 <0>         0.0541
     62 H27         4.5897   -0.0217    7.0291 H         1 <0>         0.1007
     63 H28         8.1100   -2.6706    2.1077 H         1 <0>         0.0541
     64 H29         7.8122   -1.0823    1.3614 H         1 <0>         0.0548
     65 H30         9.0900   -1.2642    2.5872 H         1 <0>         0.1004
@<TRIPOS>BOND
     1    1    2 1
     2    1   38 1
     3    1   39 1
     4    1   40 1
     5    2    3 1
     6    2   19 1
     7    2    4 1
     8    4    5 1
     9    4   41 1
    10    4   42 1
    11    5    6 2
    12    5   17 1
    13    6    7 1
    14    6   43 1
    15    7   12 ar
    16    7    8 ar
    17    8    9 ar
    18    8   44 1
    19    9   10 ar
    20    9   45 1
    21   10   11 ar
    22   10   15 1
    23   11   12 ar
    24   11   13 1
    25   12   46 1
    26   13   14 1
    27   14   47 1
    28   14   48 1
    29   14   49 1
    30   15   16 1
    31   16   50 1
    32   16   51 1
    33   16   52 1
    34   17   24 1
    35   17   18 2
    36   18   19 1
    37   18   20 1
    38   19   53 1
    39   19   54 1
    40   20   21 1
    41   20   22 1
    42   20   28 1
    43   22   23 2
    44   22   26 1
    45   23   24 1
    46   23   25 1
    47   25   55 1
    48   25   56 1
    49   26   27 3
    50   28   33 ar
    51   28   29 ar
    52   29   30 ar
    53   29   57 1
    54   30   31 ar
    55   30   58 1
    56   31   32 ar
    57   31   36 1
    58   32   33 ar
    59   32   34 1
    60   33   59 1
    61   34   35 1
    62   35   60 1
    63   35   61 1
    64   35   62 1
    65   36   37 1
    66   37   63 1
    67   37   64 1
    68   37   65 1
