@<TRIPOS>MOLECULE
ZINC12363200
   46    48     0     0     0
SMALL
USER_CHARGES
(2S)-2-[4-[(E)-[1-(2-fluorophenyl)-4,6-dioxo-2-thioxo-hexahydropyrimidin-5-ylidene]methyl]-2-methoxy-phenoxy]propanoic acid
@<TRIPOS>ATOM
      1 C1          3.1226    1.8925    0.6415 C.3       1 <0>        -0.1529
      2 C2          1.5948    1.9404    0.5735 C.3       1 <0>         0.0330
      3 H1          1.1570    2.3063    1.5140 H         1 <0>         0.0770
      4 C3          1.1705    2.8134   -0.5794 C.2       1 <0>         0.4768
      5 O1          0.5001    2.3514   -1.4722 O.co2     1 <0>        -0.6143
      6 O2          1.5373    4.1041   -0.6144 O.co2     1 <0>        -0.7577
      7 O3          1.0848    0.6192    0.3834 O.3       1 <0>        -0.2757
      8 C4          0.9470   -0.1533    1.4907 C.ar      1 <0>         0.1478
      9 C5          1.2367    0.3744    2.7437 C.ar      1 <0>        -0.1974
     10 C6          1.0947   -0.4012    3.8710 C.ar      1 <0>        -0.0069
     11 C7          0.6660   -1.7323    3.7560 C.ar      1 <0>        -0.1136
     12 C8          0.3791   -2.2648    2.4898 C.ar      1 <0>        -0.1351
     13 C9          0.5204   -1.4766    1.3667 C.ar      1 <0>         0.0679
     14 O4          0.2434   -1.9889    0.1378 O.3       1 <0>        -0.3013
     15 C10        -0.1884   -3.3501    0.0847 C.3       1 <0>         0.0257
     16 C11         0.5190   -2.5621    4.9517 C.2       1 <0>         0.0866
     17 C12        -0.1534   -2.0718    6.0544 C.2       1 <0>        -0.2944
     18 C13        -0.9292   -0.8171    5.9896 C.2       1 <0>         0.5245
     19 O5         -0.9978   -0.1772    4.9573 O.3       1 <0>        -0.4864
     20 N1         -1.5602   -0.4002    7.1067 N.2       1 <0>        -0.6178
     21 C14        -1.4934   -1.0956    8.2505 C.2       1 <0>         0.5452
     22 S1         -2.3265   -0.4880    9.6172 S.2       1 <0>        -0.7000
     23 N2         -0.8093   -2.2405    8.3826 N.am      1 <0>        -0.5106
     24 C15        -0.1333   -2.7820    7.3484 C.2       1 <0>         0.5654
     25 O6          0.4798   -3.8245    7.4798 O.2       1 <0>        -0.5141
     26 C16        -0.8009   -2.8937    9.6231 C.ar      1 <0>         0.1345
     27 C17        -1.7738   -3.8385    9.9182 C.ar      1 <0>        -0.0644
     28 C18        -1.7632   -4.4806   11.1413 C.ar      1 <0>        -0.1246
     29 C19        -0.7845   -4.1840   12.0721 C.ar      1 <0>        -0.0928
     30 C20         0.1868   -3.2436   11.7829 C.ar      1 <0>        -0.1511
     31 C21         0.1854   -2.6007   10.5582 C.ar      1 <0>         0.1245
     32 F1          1.1380   -1.6861   10.2729 F         1 <0>        -0.1331
     33 H2          3.4324    1.2553    1.4830 H         1 <0>         0.0505
     34 H3          3.5152    2.9096    0.7878 H         1 <0>         0.0780
     35 H4          3.5186    1.4781   -0.2974 H         1 <0>         0.0591
     36 H5          1.5707    1.3976    2.8327 H         1 <0>         0.1396
     37 H6          1.3166    0.0129    4.8434 H         1 <0>         0.1196
     38 H7          0.0484   -3.2885    2.3949 H         1 <0>         0.1305
     39 H8         -0.3766   -3.6345   -0.9611 H         1 <0>         0.0949
     40 H9         -1.1140   -3.4641    0.6680 H         1 <0>         0.0502
     41 H10         0.5931   -3.9994    0.5063 H         1 <0>         0.0486
     42 H11         0.9439   -3.5765    4.9728 H         1 <0>         0.1414
     43 H12        -2.5389   -4.0713    9.1924 H         1 <0>         0.1282
     44 H13        -2.5204   -5.2158   11.3708 H         1 <0>         0.1296
     45 H14        -0.7787   -4.6884   13.0271 H         1 <0>         0.1300
     46 H15         0.9501   -3.0144   12.5118 H         1 <0>         0.1349
@<TRIPOS>BOND
     1    1    2 1
     2    1   33 1
     3    1   34 1
     4    1   35 1
     5    2    3 1
     6    2    4 1
     7    2    7 1
     8    4    5 2
     9    4    6 1
    10    7    8 1
    11    8   13 ar
    12    8    9 ar
    13    9   10 ar
    14    9   36 1
    15   10   11 ar
    16   10   37 1
    17   11   12 ar
    18   11   16 1
    19   12   13 ar
    20   12   38 1
    21   13   14 1
    22   14   15 1
    23   15   39 1
    24   15   40 1
    25   15   41 1
    26   16   17 2
    27   16   42 1
    28   17   24 1
    29   17   18 1
    30   18   19 1
    31   18   20 2
    32   20   21 1
    33   21   22 2
    34   21   23 1
    35   23   24 am
    36   23   26 1
    37   24   25 2
    38   26   31 ar
    39   26   27 ar
    40   27   28 ar
    41   27   43 1
    42   28   29 ar
    43   28   44 1
    44   29   30 ar
    45   29   45 1
    46   30   31 ar
    47   30   46 1
    48   31   32 1
