@<TRIPOS>MOLECULE
ZINC36277231
   34    37     0     0     0
SMALL
USER_CHARGES

@<TRIPOS>ATOM
      1 C1          0.3380    1.0964    1.1316 C.3       1 <0>        -0.0745
      2 C2          0.2035   -0.2580    0.4846 C.2       1 <0>        -0.1264
      3 C3         -0.8851   -1.0377    0.4094 C.2       1 <0>        -0.1285
      4 C4         -0.7939   -2.3197   -0.2672 C.ar      1 <0>        -0.2350
      5 C5         -1.7926   -3.3107   -0.4765 C.ar      1 <0>         0.4936
      6 N1         -1.4772   -4.4169   -1.1303 N.ar      1 <0>        -0.5596
      7 C6         -0.2602   -4.6351   -1.5985 C.ar      1 <0>         0.4220
      8 N2          0.7083   -3.7530   -1.4351 N.ar      1 <0>        -0.4980
      9 C7          0.4801   -2.6229   -0.7953 C.ar      1 <0>         0.1524
     10 S1          1.4517   -1.2018   -0.3698 S.3       1 <0>         0.1352
     11 Cl1         0.0715   -6.1135   -2.4459 Cl        1 <0>         0.0471
     12 N3         -3.0786   -3.1202   -0.0016 N.pl3     1 <0>        -0.6291
     13 C8         -4.0153   -4.1489   -0.0938 C.ar      1 <0>         0.1508
     14 C9         -3.6052   -5.4653   -0.0925 C.ar      1 <0>        -0.1155
     15 C10        -4.5320   -6.4992   -0.1836 C.ar      1 <0>        -0.0912
     16 C11        -5.8659   -6.2416   -0.2767 C.ar      1 <0>        -0.1213
     17 C12        -6.3255   -4.9137   -0.2815 C.ar      1 <0>        -0.0347
     18 C13        -5.3923   -3.8523   -0.1834 C.ar      1 <0>        -0.0624
     19 C14        -5.8534   -2.5267   -0.1832 C.ar      1 <0>        -0.1136
     20 C15        -7.1891   -2.2777   -0.2716 C.ar      1 <0>        -0.1110
     21 C16        -8.1084   -3.3209   -0.3624 C.ar      1 <0>        -0.1155
     22 C17        -7.6965   -4.6181   -0.3770 C.ar      1 <0>        -0.1014
     23 H1          1.3589    1.4580    1.0086 H         1 <0>         0.0796
     24 H2         -0.3539    1.7945    0.6604 H         1 <0>         0.0873
     25 H3          0.1063    1.0163    2.1937 H         1 <0>         0.0875
     26 H4         -1.8186   -0.7162    0.8471 H         1 <0>         0.1393
     27 H5         -3.3283   -2.2711    0.3954 H         1 <0>         0.4235
     28 H6         -2.5528   -5.6966   -0.0204 H         1 <0>         0.1432
     29 H7         -4.1877   -7.5229   -0.1807 H         1 <0>         0.1287
     30 H8         -6.5701   -7.0573   -0.3473 H         1 <0>         0.1294
     31 H9         -5.1522   -1.7082   -0.1131 H         1 <0>         0.1178
     32 H10        -7.5413   -1.2567   -0.2709 H         1 <0>         0.1244
     33 H11        -9.1626   -3.0967   -0.4310 H         1 <0>         0.1253
     34 H12        -8.4202   -5.4166   -0.4486 H         1 <0>         0.1307
@<TRIPOS>BOND
     1    1    2 1
     2    1   23 1
     3    1   24 1
     4    1   25 1
     5    2   10 1
     6    2    3 2
     7    3    4 1
     8    3   26 1
     9    4    9 ar
    10    4    5 ar
    11    5    6 ar
    12    5   12 1
    13    6    7 ar
    14    7    8 ar
    15    7   11 1
    16    8    9 ar
    17    9   10 1
    18   12   13 1
    19   12   27 1
    20   13   18 ar
    21   13   14 ar
    22   14   15 ar
    23   14   28 1
    24   15   16 ar
    25   15   29 1
    26   16   17 ar
    27   16   30 1
    28   17   22 ar
    29   17   18 ar
    30   18   19 ar
    31   19   20 ar
    32   19   31 1
    33   20   21 ar
    34   20   32 1
    35   21   22 ar
    36   21   33 1
    37   22   34 1
