@<TRIPOS>MOLECULE
ZINC61213168
   35    35     0     0     0
SMALL
USER_CHARGES

@<TRIPOS>ATOM
      1 C1         -1.3494    0.2465    0.9467 C.3       1 <0>        -0.1775
      2 C2         -0.1481   -0.2058    0.1142 C.3       1 <0>         0.1051
      3 N1          0.0754    0.7454   -0.9775 N.am      1 <0>        -0.5932
      4 C3          0.9589    1.8966   -0.7766 C.3       1 <0>         0.1772
      5 H1          1.0012    2.4862   -1.6924 H         1 <0>         0.1011
      6 C4          0.4175    2.7623    0.3629 C.3       1 <0>        -0.1614
      7 C5          2.3636    1.4054   -0.4209 C.3       1 <0>        -0.1997
      8 C6          2.9452    0.6560   -1.5919 C.2       1 <0>         0.4852
      9 O1          2.2963    0.5267   -2.6160 O.co2     1 <0>        -0.6623
     10 O2          4.0646    0.1790   -1.5152 O.co2     1 <0>        -0.7188
     11 C7         -0.5319    0.5613   -2.1665 C.2       1 <0>         0.7376
     12 O3         -0.3464    1.3507   -3.0725 O.2       1 <0>        -0.5527
     13 N2         -1.3447   -0.4978   -2.3513 N.am      1 <0>        -0.7133
     14 C8         -2.0569   -0.6333   -3.5497 C.ar      1 <0>         0.2448
     15 C9         -1.5191   -1.3664   -4.5998 C.ar      1 <0>        -0.0799
     16 C10        -2.2242   -1.4983   -5.7811 C.ar      1 <0>        -0.0471
     17 C11        -3.4646   -0.9011   -5.9183 C.ar      1 <0>        -0.0864
     18 C12        -4.0027   -0.1699   -4.8743 C.ar      1 <0>        -0.0495
     19 C13        -3.3051   -0.0396   -3.6884 C.ar      1 <0>        -0.0809
     20 Br1        -4.0454    0.9525   -2.2589 Br        1 <0>        -0.0194
     21 Br2        -4.4261   -1.0840   -7.5363 Br        1 <0>        -0.0321
     22 Br3         0.1765   -2.1826   -4.4135 Br        1 <0>         0.0116
     23 H2         -1.1528    1.2354    1.3610 H         1 <0>         0.0658
     24 H3         -2.2356    0.2875    0.3134 H         1 <0>         0.0559
     25 H4         -1.5157   -0.4612    1.7589 H         1 <0>         0.0596
     26 H5          0.7381   -0.2467    0.7475 H         1 <0>         0.0809
     27 H6         -0.3447   -1.1946   -0.3001 H         1 <0>         0.0627
     28 H7          1.0749    3.6188    0.5123 H         1 <0>         0.0600
     29 H8         -0.5832    3.1121    0.1095 H         1 <0>         0.0506
     30 H9          0.3752    2.1726    1.2786 H         1 <0>         0.0542
     31 H10         2.9982    2.2596   -0.1848 H         1 <0>         0.0628
     32 H11         2.3090    0.7434    0.4433 H         1 <0>         0.0546
     33 H12        -1.4365   -1.1662   -1.6543 H         1 <0>         0.4049
     34 H13        -1.8063   -2.0679   -6.5980 H         1 <0>         0.1505
     35 H14        -4.9710    0.2955   -4.9845 H         1 <0>         0.1492
@<TRIPOS>BOND
     1    1    2 1
     2    1   23 1
     3    1   24 1
     4    1   25 1
     5    2    3 1
     6    2   26 1
     7    2   27 1
     8    3    4 1
     9    3   11 am
    10    4    5 1
    11    4    6 1
    12    4    7 1
    13    6   28 1
    14    6   29 1
    15    6   30 1
    16    7    8 1
    17    7   31 1
    18    7   32 1
    19    8    9 2
    20    8   10 1
    21   11   12 2
    22   11   13 am
    23   13   14 1
    24   13   33 1
    25   14   19 ar
    26   14   15 ar
    27   15   16 ar
    28   15   22 1
    29   16   17 ar
    30   16   34 1
    31   17   18 ar
    32   17   21 1
    33   18   19 ar
    34   18   35 1
    35   19   20 1
