@<TRIPOS>MOLECULE
ZINC08605278
   45    47     0     0     0
SMALL
USER_CHARGES

@<TRIPOS>ATOM
      1 C1         -0.0129    1.3459   -1.3918 C.3       1 <0>        -0.1108
      2 C2          0.0038   -0.1312   -1.0938 C.ar      1 <0>        -0.0816
      3 C3         -0.1314   -1.0437   -2.1246 C.ar      1 <0>        -0.1394
      4 C4         -0.1163   -2.3977   -1.8574 C.ar      1 <0>        -0.0970
      5 C5          0.0354   -2.8448   -0.5465 C.ar      1 <0>        -0.0549
      6 C6          0.1712   -1.9213    0.4878 C.ar      1 <0>        -0.0315
      7 C7          0.1601   -0.5697    0.2087 C.ar      1 <0>        -0.1169
      8 C8          0.0519   -4.2997   -0.2531 C.2       1 <0>        -0.0262
      9 C9         -0.9271   -5.1313   -0.7495 C.2       1 <0>        -0.2476
     10 S1         -0.5065   -6.6512   -0.1717 S.3       1 <0>         0.2699
     11 C10         0.9661   -6.2203    0.7343 C.2       1 <0>        -0.1396
     12 C11         1.0544   -4.8559    0.5216 C.2       1 <0>        -0.5638
     13 S2          2.3591   -3.8857    1.2007 S.o2      1 <0>         2.6049
     14 O1          3.4887   -4.7412    1.3064 O.2       1 <0>        -0.9942
     15 O2          2.3892   -2.6719    0.4624 O.2       1 <0>        -1.0082
     16 N1          1.9199   -3.4882    2.7471 N.2       1 <0>        -1.0779
     17 C12         2.7716   -2.7133    3.5377 C.ar      1 <0>         0.2984
     18 C13         3.9850   -2.2703    3.0261 C.ar      1 <0>        -0.2575
     19 C14         4.8249   -1.5038    3.8096 C.ar      1 <0>        -0.0598
     20 C15         4.4601   -1.1771    5.1028 C.ar      1 <0>        -0.2177
     21 C16         3.2524   -1.6164    5.6161 C.ar      1 <0>         0.0124
     22 C17         2.4047   -2.3792    4.8347 C.ar      1 <0>        -0.1447
     23 C18         1.0867   -2.8523    5.3915 C.3       1 <0>        -0.0808
     24 Cl1         2.7989   -1.2043    7.2403 Cl        1 <0>        -0.1050
     25 C19         1.8590   -7.0898    1.5032 C.2       1 <0>         0.5121
     26 O3          2.7593   -6.6063    2.1627 O.2       1 <0>        -0.4031
     27 O4          1.6830   -8.4270    1.4801 O.3       1 <0>        -0.3570
     28 C20         2.5907   -9.2144    2.2535 C.3       1 <0>         0.0370
     29 H1          1.0028    1.6880   -1.5907 H         1 <0>         0.0672
     30 H2         -0.6370    1.5333   -2.2656 H         1 <0>         0.0601
     31 H3         -0.4165    1.8850   -0.5347 H         1 <0>         0.0632
     32 H4         -0.2493   -0.6960   -3.1402 H         1 <0>         0.1147
     33 H5         -0.2223   -3.1093   -2.6628 H         1 <0>         0.1135
     34 H6          0.2891   -2.2626    1.5057 H         1 <0>         0.1329
     35 H7          0.2697    0.1470    1.0092 H         1 <0>         0.1185
     36 H8         -1.7719   -4.8668   -1.3682 H         1 <0>         0.1944
     37 H9          4.2712   -2.5254    2.0164 H         1 <0>         0.1005
     38 H10         5.7682   -1.1594    3.4120 H         1 <0>         0.1095
     39 H11         5.1193   -0.5781    5.7137 H         1 <0>         0.1110
     40 H12         1.2226   -3.8202    5.8741 H         1 <0>         0.0496
     41 H13         0.7207   -2.1305    6.1217 H         1 <0>         0.0453
     42 H14         0.3635   -2.9484    4.5816 H         1 <0>         0.0730
     43 H15         2.5177   -8.9275    3.3025 H         1 <0>         0.0630
     44 H16         2.3383  -10.2694    2.1470 H         1 <0>         0.1011
     45 H17         3.6084   -9.0468    1.9010 H         1 <0>         0.0627
@<TRIPOS>BOND
     1    1    2 1
     2    1   29 1
     3    1   30 1
     4    1   31 1
     5    2    7 ar
     6    2    3 ar
     7    3    4 ar
     8    3   32 1
     9    4    5 ar
    10    4   33 1
    11    5    6 ar
    12    5    8 1
    13    6    7 ar
    14    6   34 1
    15    7   35 1
    16    8   12 1
    17    8    9 2
    18    9   10 1
    19    9   36 1
    20   10   11 1
    21   11   12 2
    22   11   25 1
    23   12   13 1
    24   13   14 2
    25   13   15 2
    26   13   16 1
    27   16   17 1
    28   17   22 ar
    29   17   18 ar
    30   18   19 ar
    31   18   37 1
    32   19   20 ar
    33   19   38 1
    34   20   21 ar
    35   20   39 1
    36   21   22 ar
    37   21   24 1
    38   22   23 1
    39   23   40 1
    40   23   41 1
    41   23   42 1
    42   25   26 2
    43   25   27 1
    44   27   28 1
    45   28   43 1
    46   28   44 1
    47   28   45 1
