@<TRIPOS>MOLECULE
ZINC40851455
   51    53     0     0     0
SMALL
USER_CHARGES

@<TRIPOS>ATOM
      1 C1         -0.0187    1.5258    0.0104 C.3       1 <0>        -0.1521
      2 C2          0.0021   -0.0041    0.0020 C.3       1 <0>         0.0562
      3 O1         -1.3386   -0.4987    0.0122 O.3       1 <0>        -0.3454
      4 C3         -1.4971   -1.8382    0.0065 C.2       1 <0>         0.5335
      5 O2         -0.5225   -2.5660   -0.0067 O.2       1 <0>        -0.4932
      6 C4         -2.8422   -2.4161    0.0162 C.2       1 <0>        -0.2191
      7 C5         -3.5478   -2.7136   -1.2189 C.2       1 <0>        -0.0556
      8 C6         -4.7767   -3.2428   -1.0393 C.2       1 <0>        -0.2234
      9 S1         -4.9743   -3.3352    0.7160 S.3       1 <0>         0.3027
     10 C7         -3.4951   -2.7084    1.2048 C.2       1 <0>         0.0630
     11 N1         -3.0338   -2.5231    2.4982 N.am      1 <0>        -0.6158
     12 C8         -3.8090   -2.8665    3.5458 C.2       1 <0>         0.7334
     13 O3         -4.9132   -3.3390    3.3560 O.2       1 <0>        -0.5393
     14 N2         -3.3603   -2.6863    4.8038 N.am      1 <0>        -0.5734
     15 N3         -2.0880   -2.1419    5.0225 N.2       1 <0>        -0.2636
     16 C9         -1.6560   -1.9684    6.2337 C.2       1 <0>         0.1418
     17 C10        -0.3171   -1.3955    6.4639 C.ar      1 <0>        -0.0668
     18 C11         0.4861   -1.0334    5.3792 C.ar      1 <0>        -0.0468
     19 C12         1.7367   -0.4978    5.5986 C.ar      1 <0>        -0.1421
     20 C13         2.1999   -0.3180    6.8955 C.ar      1 <0>         0.1585
     21 C14         1.4052   -0.6765    7.9774 C.ar      1 <0>        -0.1268
     22 C15         0.1501   -1.2078    7.7671 C.ar      1 <0>        -0.0412
     23 Br1         2.0428   -0.4294    9.7404 Br        1 <0>        -0.0256
     24 O4          3.4340    0.2096    7.1069 O.3       1 <0>        -0.4845
     25 C16        -5.7432   -3.6553   -2.1063 C.3       1 <0>        -0.0290
     26 C17        -4.9840   -3.7387   -3.4387 C.3       1 <0>        -0.0877
     27 H1         -4.3283   -4.6094   -3.4314 H         1 <0>         0.0765
     28 C18        -4.1472   -2.4680   -3.6127 C.3       1 <0>        -0.1127
     29 C19        -2.9892   -2.4659   -2.6124 C.3       1 <0>        -0.0619
     30 C20        -5.9831   -3.8592   -4.5911 C.3       1 <0>        -0.1474
     31 H2          1.0039    1.9031    0.0027 H         1 <0>         0.0808
     32 H3         -0.5459    1.8868   -0.8726 H         1 <0>         0.0678
     33 H4         -0.5289    1.8773    0.9072 H         1 <0>         0.0662
     34 H5          0.5123   -0.3556   -0.8948 H         1 <0>         0.0690
     35 H6          0.5293   -0.3651    0.8851 H         1 <0>         0.0668
     36 H7         -2.1529   -2.1462    2.6496 H         1 <0>         0.4248
     37 H8         -3.9182   -2.9335    5.5578 H         1 <0>         0.4130
     38 H9         -2.2772   -2.2436    7.0733 H         1 <0>         0.1337
     39 H10         0.1273   -1.1733    4.3702 H         1 <0>         0.1413
     40 H11         2.3578   -0.2177    4.7607 H         1 <0>         0.1450
     41 H12        -0.4689   -1.4824    8.6084 H         1 <0>         0.1458
     42 H13         3.4423    1.1737    7.1803 H         1 <0>         0.4000
     43 H14        -6.1656   -4.6301   -1.8625 H         1 <0>         0.0821
     44 H15        -6.5416   -2.9173   -2.1840 H         1 <0>         0.0843
     45 H16        -3.7497   -2.4323   -4.6270 H         1 <0>         0.0715
     46 H17        -4.7757   -1.5942   -3.4405 H         1 <0>         0.0685
     47 H18        -2.4854   -1.4996   -2.6379 H         1 <0>         0.0740
     48 H19        -2.2833   -3.2558   -2.8691 H         1 <0>         0.0799
     49 H20        -6.6351   -2.9857   -4.5996 H         1 <0>         0.0573
     50 H21        -5.4426   -3.9182   -5.5359 H         1 <0>         0.0582
     51 H22        -6.5833   -4.7594   -4.4590 H         1 <0>         0.0580
@<TRIPOS>BOND
     1    1    2 1
     2    1   31 1
     3    1   32 1
     4    1   33 1
     5    2    3 1
     6    2   34 1
     7    2   35 1
     8    3    4 1
     9    4    5 2
    10    4    6 1
    11    6   10 2
    12    6    7 1
    13    7   29 1
    14    7    8 2
    15    8    9 1
    16    8   25 1
    17    9   10 1
    18   10   11 1
    19   11   12 am
    20   11   36 1
    21   12   13 2
    22   12   14 am
    23   14   15 1
    24   14   37 1
    25   15   16 2
    26   16   17 1
    27   16   38 1
    28   17   22 ar
    29   17   18 ar
    30   18   19 ar
    31   18   39 1
    32   19   20 ar
    33   19   40 1
    34   20   21 ar
    35   20   24 1
    36   21   22 ar
    37   21   23 1
    38   22   41 1
    39   24   42 1
    40   25   26 1
    41   25   43 1
    42   25   44 1
    43   26   27 1
    44   26   28 1
    45   26   30 1
    46   28   29 1
    47   28   45 1
    48   28   46 1
    49   29   47 1
    50   29   48 1
    51   30   49 1
    52   30   50 1
    53   30   51 1
