@<TRIPOS>MOLECULE
ZINC02230855
   51    54     0     0     0
SMALL
USER_CHARGES
2-[3-(4-bromophenyl)-4-oxo-quinazolin-2-yl]sulfanyl-N-(2,3-dimethylphenyl)-acetamide
@<TRIPOS>ATOM
      1 C1        -11.8309   -1.3994    0.6927 C.3       1 <0>        -0.1170
      2 C2        -10.6207   -2.1226    0.1602 C.ar      1 <0>        -0.0666
      3 C3        -10.7656   -3.3550   -0.4504 C.ar      1 <0>        -0.1318
      4 C4         -9.6579   -4.0215   -0.9406 C.ar      1 <0>        -0.0995
      5 C5         -8.4024   -3.4577   -0.8221 C.ar      1 <0>        -0.1315
      6 C6         -8.2535   -2.2206   -0.2095 C.ar      1 <0>         0.1469
      7 C7         -9.3676   -1.5564    0.2873 C.ar      1 <0>        -0.1151
      8 C8         -9.2098   -0.2164    0.9584 C.3       1 <0>        -0.1180
      9 N1         -6.9831   -1.6468   -0.0880 N.am      1 <0>        -0.6601
     10 C9         -5.8870   -2.4309   -0.0848 C.2       1 <0>         0.5316
     11 O1         -6.0049   -3.6381   -0.0801 O.2       1 <0>        -0.5002
     12 C10        -4.5148   -1.8079   -0.0871 C.3       1 <0>        -0.1597
     13 S1         -3.2599   -3.1123   -0.0818 S.3       1 <0>         0.0990
     14 C11        -1.7973   -2.1298   -0.0855 C.2       1 <0>         0.3536
     15 N2         -1.9208   -0.8255   -0.0906 N.2       1 <0>        -0.5251
     16 C12        -0.8445   -0.0137   -0.0942 C.ar      1 <0>         0.1651
     17 C13        -0.9765    1.3782   -0.0992 C.ar      1 <0>        -0.1110
     18 C14         0.1416    2.1635   -0.1021 C.ar      1 <0>        -0.0673
     19 C15         1.4112    1.5999   -0.1003 C.ar      1 <0>        -0.1367
     20 C16         1.5729    0.2420   -0.0954 C.ar      1 <0>        -0.0367
     21 C17         0.4493   -0.5836   -0.0923 C.ar      1 <0>        -0.1976
     22 C18         0.5629   -2.0480   -0.0865 C.2       1 <0>         0.5545
     23 O2          1.6494   -2.5971   -0.0842 O.2       1 <0>        -0.4885
     24 N3         -0.5856   -2.7640   -0.0833 N.am      1 <0>        -0.4836
     25 C19        -0.5328   -4.1641   -0.0773 C.ar      1 <0>         0.1100
     26 C20        -1.1732   -4.8800    0.9254 C.ar      1 <0>        -0.1003
     27 C21        -1.1240   -6.2602    0.9260 C.ar      1 <0>        -0.0719
     28 C22        -0.4278   -6.9293   -0.0650 C.ar      1 <0>        -0.0783
     29 C23         0.2157   -6.2182   -1.0624 C.ar      1 <0>        -0.0758
     30 C24         0.1648   -4.8381   -1.0709 C.ar      1 <0>        -0.0795
     31 Br1        -0.3560   -8.8189   -0.0565 Br        1 <0>        -0.0347
     32 H1        -12.0006   -1.6895    1.7295 H         1 <0>         0.0722
     33 H2        -11.6640   -0.3236    0.6391 H         1 <0>         0.0691
     34 H3        -12.7034   -1.6619    0.0944 H         1 <0>         0.0686
     35 H4        -11.7462   -3.7979   -0.5443 H         1 <0>         0.1237
     36 H5         -9.7743   -4.9837   -1.4170 H         1 <0>         0.1266
     37 H6         -7.5376   -3.9785   -1.2058 H         1 <0>         0.1447
     38 H7         -9.2966    0.5752    0.2141 H         1 <0>         0.0723
     39 H8         -9.9878   -0.0935    1.7119 H         1 <0>         0.0756
     40 H9         -8.2309   -0.1615    1.4347 H         1 <0>         0.0621
     41 H10        -6.8914   -0.6846   -0.0060 H         1 <0>         0.4144
     42 H11        -4.3965   -1.1864    0.8005 H         1 <0>         0.1345
     43 H12        -4.3963   -1.1934   -0.9795 H         1 <0>         0.1350
     44 H13        -1.9573    1.8303   -0.1052 H         1 <0>         0.1403
     45 H14         0.0367    3.2384   -0.1060 H         1 <0>         0.1364
     46 H15         2.2802    2.2412   -0.1031 H         1 <0>         0.1356
     47 H16         2.5637   -0.1878   -0.0936 H         1 <0>         0.1394
     48 H17        -1.7128   -4.3580    1.7018 H         1 <0>         0.1450
     49 H18        -1.6257   -6.8176    1.7032 H         1 <0>         0.1472
     50 H19         0.7584   -6.7429   -1.8347 H         1 <0>         0.1454
     51 H20         0.6675   -4.2835   -1.8494 H         1 <0>         0.1379
@<TRIPOS>BOND
     1    1    2 1
     2    1   32 1
     3    1   33 1
     4    1   34 1
     5    2    7 ar
     6    2    3 ar
     7    3    4 ar
     8    3   35 1
     9    4    5 ar
    10    4   36 1
    11    5    6 ar
    12    5   37 1
    13    6    7 ar
    14    6    9 1
    15    7    8 1
    16    8   38 1
    17    8   39 1
    18    8   40 1
    19    9   10 am
    20    9   41 1
    21   10   11 2
    22   10   12 1
    23   12   13 1
    24   12   42 1
    25   12   43 1
    26   13   14 1
    27   14   24 1
    28   14   15 2
    29   15   16 1
    30   16   21 ar
    31   16   17 ar
    32   17   18 ar
    33   17   44 1
    34   18   19 ar
    35   18   45 1
    36   19   20 ar
    37   19   46 1
    38   20   21 ar
    39   20   47 1
    40   21   22 1
    41   22   23 2
    42   22   24 am
    43   24   25 1
    44   25   30 ar
    45   25   26 ar
    46   26   27 ar
    47   26   48 1
    48   27   28 ar
    49   27   49 1
    50   28   29 ar
    51   28   31 1
    52   29   30 ar
    53   29   50 1
    54   30   51 1
