@<TRIPOS>MOLECULE
ZINC39016601
   59    62     0     0     0
SMALL
USER_CHARGES

@<TRIPOS>ATOM
      1 C1         -1.9367    2.4019    0.7503 C.3       1 <0>        -0.1154
      2 C2         -2.1600    2.8866    2.1597 C.ar      1 <0>        -0.0699
      3 C3         -2.4884    4.2100    2.3912 C.ar      1 <0>        -0.1336
      4 C4         -2.6945    4.6585    3.6827 C.ar      1 <0>        -0.0958
      5 C5         -2.5728    3.7854    4.7462 C.ar      1 <0>        -0.1221
      6 C6         -2.2432    2.4562    4.5172 C.ar      1 <0>         0.1494
      7 C7         -2.0420    2.0076    3.2182 C.ar      1 <0>        -0.1278
      8 N1         -2.1188    1.5694    5.5923 N.am      1 <0>        -0.6642
      9 C8         -1.3519    0.4677    5.4719 C.2       1 <0>         0.5328
     10 O1         -0.6871    0.2979    4.4717 O.2       1 <0>        -0.4945
     11 C9         -1.3203   -0.5533    6.5799 C.3       1 <0>        -0.1412
     12 S1         -0.2046   -1.9083    6.1219 S.3       1 <0>        -0.1129
     13 C10        -0.3942   -3.1075    7.4698 C.3       1 <0>         0.2363
     14 H1         -0.3432   -2.6053    8.4359 H         1 <0>         0.1404
     15 N2         -1.6781   -3.8442    7.3338 N.3       1 <0>        -0.4882
     16 N3         -1.4248   -5.0919    8.0713 N.3       1 <0>        -0.4850
     17 C11        -0.0172   -5.4277    7.7580 C.3       1 <0>         0.2266
     18 H2          0.0227   -6.1351    6.9296 H         1 <0>         0.0790
     19 N4          0.6440   -4.1599    7.3772 N.3       1 <0>        -0.3494
     20 N5          1.1864   -4.2397    6.0305 N.3       1 <0>        -0.6972
     21 C12         0.6663   -6.0244    8.9899 C.3       1 <0>        -0.0054
     22 H3          1.7329   -6.1580    8.8098 H         1 <0>         0.1511
     23 C13         0.0187   -7.3422    9.3767 C.2       1 <0>        -0.1722
     24 C14        -0.4585   -7.1157   10.6160 C.2       1 <0>         0.0360
     25 N6         -0.1783   -5.8448   11.0071 N.2       1 <0>        -0.1597
     26 N7          0.4409   -5.1757   10.1716 N.2       1 <0>        -0.1113
     27 C15        -1.1870   -8.1130   11.4378 C.ar      1 <0>        -0.0723
     28 C16        -1.4162   -9.3947   10.9399 C.ar      1 <0>        -0.0601
     29 C17        -2.0933  -10.3197   11.7064 C.ar      1 <0>        -0.1533
     30 C18        -2.5470   -9.9755   12.9725 C.ar      1 <0>         0.1399
     31 C19        -2.3202   -8.6997   13.4712 C.ar      1 <0>        -0.2100
     32 C20        -1.6387   -7.7721   12.7117 C.ar      1 <0>        -0.0422
     33 O2         -3.2146  -10.8888   13.7251 O.3       1 <0>        -0.3156
     34 C21        -3.6533  -10.4678   15.0183 C.3       1 <0>         0.0248
     35 C22        -2.7971    4.2752    6.1537 C.3       1 <0>        -0.1153
     36 H4         -2.8815    2.0556    0.3313 H         1 <0>         0.0711
     37 H5         -1.5474    3.2187    0.1426 H         1 <0>         0.0677
     38 H6         -1.2199    1.5809    0.7577 H         1 <0>         0.0683
     39 H7         -2.5838    4.8946    1.5614 H         1 <0>         0.1234
     40 H8         -2.9505    5.6926    3.8602 H         1 <0>         0.1267
     41 H9         -1.7896    0.9734    3.0364 H         1 <0>         0.1451
     42 H10        -2.5844    1.7476    6.4244 H         1 <0>         0.4129
     43 H11        -0.9643   -0.0836    7.4968 H         1 <0>         0.1179
     44 H12        -2.3240   -0.9473    6.7396 H         1 <0>         0.1233
     45 H13        -1.8858   -4.0328    6.3646 H         1 <0>         0.3294
     46 H14        -2.0478   -5.8248    7.7666 H         1 <0>         0.3529
     47 H15         1.6784   -3.3928    5.7881 H         1 <0>         0.3701
     48 H16         1.7835   -5.0466    5.9284 H         1 <0>         0.3578
     49 H17        -0.0446   -8.2494    8.7942 H         1 <0>         0.1694
     50 H18        -1.0641   -9.6628    9.9547 H         1 <0>         0.1302
     51 H19        -2.2711  -11.3129   11.3212 H         1 <0>         0.1357
     52 H20        -2.6747   -8.4347   14.4563 H         1 <0>         0.1336
     53 H21        -1.4587   -6.7813   13.1019 H         1 <0>         0.1380
     54 H22        -2.7912  -10.1703   15.6153 H         1 <0>         0.0581
     55 H23        -4.3324   -9.6216   14.9139 H         1 <0>         0.0582
     56 H24        -4.1708  -11.2903   15.5120 H         1 <0>         0.1025
     57 H25        -3.8489    4.1596    6.4153 H         1 <0>         0.0715
     58 H26        -2.1852    3.6932    6.8428 H         1 <0>         0.0615
     59 H27        -2.5194    5.3271    6.2209 H         1 <0>         0.0729
@<TRIPOS>BOND
     1    1    2 1
     2    1   36 1
     3    1   37 1
     4    1   38 1
     5    2    7 ar
     6    2    3 ar
     7    3    4 ar
     8    3   39 1
     9    4    5 ar
    10    4   40 1
    11    5    6 ar
    12    5   35 1
    13    6    7 ar
    14    6    8 1
    15    7   41 1
    16    8    9 am
    17    8   42 1
    18    9   10 2
    19    9   11 1
    20   11   12 1
    21   11   43 1
    22   11   44 1
    23   12   13 1
    24   13   14 1
    25   13   19 1
    26   13   15 1
    27   15   16 1
    28   15   45 1
    29   16   17 1
    30   16   46 1
    31   17   18 1
    32   17   19 1
    33   17   21 1
    34   19   20 1
    35   20   47 1
    36   20   48 1
    37   21   22 1
    38   21   26 1
    39   21   23 1
    40   23   24 2
    41   23   49 1
    42   24   25 1
    43   24   27 1
    44   25   26 2
    45   27   32 ar
    46   27   28 ar
    47   28   29 ar
    48   28   50 1
    49   29   30 ar
    50   29   51 1
    51   30   31 ar
    52   30   33 1
    53   31   32 ar
    54   31   52 1
    55   32   53 1
    56   33   34 1
    57   34   54 1
    58   34   55 1
    59   34   56 1
    60   35   57 1
    61   35   58 1
    62   35   59 1
