@<TRIPOS>MOLECULE
ZINC01955278
   37    40     0     0     0
SMALL
USER_CHARGES
2-[(E)-[2-(3-bromophenyl)-1,3-benzothiazol-5-yl]iminomethyl]-4,6-dichloro-phenol
@<TRIPOS>ATOM
      1 C1         -6.6398   -0.1872    0.0650 C.ar      1 <0>        -0.1124
      2 C2         -5.3158    0.2016    0.0490 C.ar      1 <0>        -0.0546
      3 C3         -4.9897    1.5582    0.0594 C.ar      1 <0>        -0.0054
      4 C4         -6.0062    2.5141    0.0751 C.ar      1 <0>        -0.0627
      5 C5         -7.3269    2.1125    0.0861 C.ar      1 <0>        -0.0919
      6 C6         -7.6433    0.7645    0.0810 C.ar      1 <0>        -0.0745
      7 Br1        -8.7064    3.4056    0.1074 Br        1 <0>        -0.0429
      8 C7         -3.5728    1.9813    0.0476 C.2       1 <0>         0.1831
      9 N1         -2.4898    1.2360    0.0329 N.2       1 <0>        -0.4818
     10 C8         -1.2488    1.7611    0.0176 C.ar      1 <0>         0.0895
     11 C9         -0.0126    1.0758    0.0080 C.ar      1 <0>        -0.0599
     12 C10         1.1796    1.7797    0.0004 C.ar      1 <0>         0.1284
     13 C11         1.1948    3.1813    0.0077 C.ar      1 <0>        -0.1329
     14 C12         0.0093    3.8653    0.0227 C.ar      1 <0>        -0.0538
     15 C13        -1.1805    3.1755    0.0304 C.ar      1 <0>        -0.1559
     16 S1         -2.8969    3.6358    0.0499 S.3       1 <0>        -0.0215
     17 N2          2.3646    1.0947   -0.0142 N.2       1 <0>        -0.4672
     18 C14         3.3208    1.4637   -0.8196 C.2       1 <0>         0.2417
     19 C15         4.5939    0.7277   -0.8352 C.ar      1 <0>        -0.2361
     20 C16         5.6228    1.1201   -1.6978 C.ar      1 <0>        -0.0114
     21 C17         6.8141    0.4259   -1.7070 C.ar      1 <0>        -0.1654
     22 C18         6.9972   -0.6599   -0.8648 C.ar      1 <0>        -0.0371
     23 C19         5.9887   -1.0577   -0.0072 C.ar      1 <0>        -0.1545
     24 C20         4.7857   -0.3682    0.0189 C.ar      1 <0>         0.3102
     25 O1          3.7964   -0.7549    0.8645 O.3       1 <0>        -0.6163
     26 Cl1         6.2305   -2.4191    1.0425 Cl        1 <0>        -0.0945
     27 Cl2         8.0901    0.9134   -2.7784 Cl        1 <0>        -0.1117
     28 H1         -6.8931   -1.2371    0.0604 H         1 <0>         0.1421
     29 H2         -4.5335   -0.5428    0.0323 H         1 <0>         0.1456
     30 H3         -5.7603    3.5657    0.0784 H         1 <0>         0.1386
     31 H4         -8.6779    0.4550    0.0893 H         1 <0>         0.1384
     32 H5          0.0021   -0.0041    0.0020 H         1 <0>         0.1396
     33 H6          2.1329    3.7164    0.0020 H         1 <0>         0.1371
     34 H7          0.0082    4.9453    0.0282 H         1 <0>         0.1313
     35 H8          3.1754    2.3255   -1.4875 H         1 <0>         0.0883
     36 H9          5.4841    1.9653   -2.3558 H         1 <0>         0.1147
     37 H10         7.9335   -1.1979   -0.8785 H         1 <0>         0.1157
@<TRIPOS>BOND
     1    1    6 ar
     2    1    2 ar
     3    1   28 1
     4    2    3 ar
     5    2   29 1
     6    3    4 ar
     7    3    8 1
     8    4    5 ar
     9    4   30 1
    10    5    6 ar
    11    5    7 1
    12    6   31 1
    13    8   16 1
    14    8    9 2
    15    9   10 1
    16   10   15 ar
    17   10   11 ar
    18   11   12 ar
    19   11   32 1
    20   12   13 ar
    21   12   17 1
    22   13   14 ar
    23   13   33 1
    24   14   15 ar
    25   14   34 1
    26   15   16 1
    27   17   18 2
    28   18   19 1
    29   18   35 1
    30   19   24 ar
    31   19   20 ar
    32   20   21 ar
    33   20   36 1
    34   21   22 ar
    35   21   27 1
    36   22   23 ar
    37   22   37 1
    38   23   24 ar
    39   23   26 1
    40   24   25 1
