@<TRIPOS>MOLECULE
ZINC08934362
   50    52     0     0     0
SMALL
USER_CHARGES
3-(3-chlorophenyl)-1-[3-[2-(2-fluorophenyl)ethyl]-5,5-dimethyl-2-thioxo-thiazolidin-4-yl]-1-hydroxy-urea
@<TRIPOS>ATOM
      1 C1         -0.2642    7.8511    0.2270 C.3       1 <0>        -0.1347
      2 C2          0.3452    7.3645    1.5434 C.3       1 <0>        -0.0525
      3 C3          0.2031    5.8356    1.6906 C.3       1 <0>         0.3811
      4 H1         -0.3552    5.4520    0.8367 H         1 <0>         0.1581
      5 N1          1.4720    5.1490    1.7616 N.pl3     1 <0>        -0.5518
      6 C4          2.6260    5.8288    1.7053 C.2       1 <0>         0.3288
      7 S1          4.2101    5.1839    1.7812 S.2       1 <0>        -0.4233
      8 S2          2.1698    7.5420    1.5329 S.3       1 <0>        -0.0630
      9 C5          1.4980    3.6911    1.9031 C.3       1 <0>         0.1065
     10 C6          1.5121    3.0443    0.5166 C.3       1 <0>        -0.0887
     11 C7          1.5389    1.5446    0.6622 C.ar      1 <0>        -0.1214
     12 C8          0.3734    0.8152    0.5201 C.ar      1 <0>        -0.0812
     13 C9          0.3978   -0.5604    0.6532 C.ar      1 <0>        -0.1304
     14 C10         1.5878   -1.2085    0.9280 C.ar      1 <0>        -0.0888
     15 C11         2.7541   -0.4814    1.0709 C.ar      1 <0>        -0.1553
     16 C12         2.7308    0.8968    0.9383 C.ar      1 <0>         0.1081
     17 F1          3.8705    1.6088    1.0782 F         1 <0>        -0.1250
     18 N2         -0.5559    5.5489    2.9104 N.am      1 <0>        -0.4858
     19 C13        -1.5666    4.6577    2.8814 C.2       1 <0>         0.7014
     20 O1         -1.9080    4.1600    1.8259 O.2       1 <0>        -0.5410
     21 N3         -2.1987    4.3183    4.0223 N.am      1 <0>        -0.6788
     22 C14        -3.1825    3.3231    4.0077 C.ar      1 <0>         0.1667
     23 C15        -3.3294    2.4739    5.0969 C.ar      1 <0>        -0.1369
     24 C16        -4.3010    1.4926    5.0802 C.ar      1 <0>        -0.0846
     25 C17        -5.1280    1.3547    3.9805 C.ar      1 <0>        -0.1202
     26 C18        -4.9846    2.1989    2.8935 C.ar      1 <0>        -0.0160
     27 C19        -4.0172    3.1865    2.9069 C.ar      1 <0>        -0.1110
     28 Cl1        -6.0254    2.0228    1.5152 Cl        1 <0>        -0.0591
     29 O2         -0.2278    6.2081    4.1199 O.3       1 <0>        -0.3080
     30 C20        -0.2743    8.0938    2.7372 C.3       1 <0>        -0.1171
     31 H2         -1.3236    7.5957    0.2007 H         1 <0>         0.0828
     32 H3         -0.1492    8.9323    0.1512 H         1 <0>         0.0863
     33 H4          0.2459    7.3719   -0.6086 H         1 <0>         0.0751
     34 H5          0.6129    3.3630    2.4481 H         1 <0>         0.0838
     35 H6          2.3926    3.3952    2.4512 H         1 <0>         0.1111
     36 H7          2.3972    3.3723   -0.0284 H         1 <0>         0.0895
     37 H8          0.6175    3.3402   -0.0314 H         1 <0>         0.0820
     38 H9         -0.5558    1.3199    0.3006 H         1 <0>         0.1322
     39 H10        -0.5134   -1.1295    0.5420 H         1 <0>         0.1299
     40 H11         1.6057   -2.2834    1.0314 H         1 <0>         0.1330
     41 H12         3.6834   -0.9878    1.2863 H         1 <0>         0.1367
     42 H13        -1.9717    4.7637    4.8535 H         1 <0>         0.4073
     43 H14        -2.6840    2.5807    5.9563 H         1 <0>         0.1332
     44 H15        -4.4152    0.8322    5.9271 H         1 <0>         0.1402
     45 H16        -5.8875    0.5869    3.9702 H         1 <0>         0.1376
     46 H17        -3.9085    3.8484    2.0605 H         1 <0>         0.1523
     47 H18        -0.7299    5.8977    4.8858 H         1 <0>         0.3721
     48 H19         0.3543    7.9512    3.6162 H         1 <0>         0.0902
     49 H20        -0.3500    9.1579    2.5135 H         1 <0>         0.0701
     50 H21        -1.2685    7.6919    2.9324 H         1 <0>         0.0783
@<TRIPOS>BOND
     1    1    2 1
     2    1   31 1
     3    1   32 1
     4    1   33 1
     5    2    8 1
     6    2    3 1
     7    2   30 1
     8    3    4 1
     9    3    5 1
    10    3   18 1
    11    5    6 1
    12    5    9 1
    13    6    7 2
    14    6    8 1
    15    9   10 1
    16    9   34 1
    17    9   35 1
    18   10   11 1
    19   10   36 1
    20   10   37 1
    21   11   16 ar
    22   11   12 ar
    23   12   13 ar
    24   12   38 1
    25   13   14 ar
    26   13   39 1
    27   14   15 ar
    28   14   40 1
    29   15   16 ar
    30   15   41 1
    31   16   17 1
    32   18   19 am
    33   18   29 1
    34   19   20 2
    35   19   21 am
    36   21   22 1
    37   21   42 1
    38   22   27 ar
    39   22   23 ar
    40   23   24 ar
    41   23   43 1
    42   24   25 ar
    43   24   44 1
    44   25   26 ar
    45   25   45 1
    46   26   27 ar
    47   26   28 1
    48   27   46 1
    49   29   47 1
    50   30   48 1
    51   30   49 1
    52   30   50 1
