@<TRIPOS>MOLECULE
ZINC36685176
   41    43     0     0     0
SMALL
USER_CHARGES

@<TRIPOS>ATOM
      1 C1         -2.4892    1.4748   -1.1947 C.3       1 <0>        -0.0504
      2 N1         -2.0222    0.0846   -1.2788 N.4       1 <0>        -0.3835
      3 C2         -1.1699   -0.0748   -2.4645 C.3       1 <0>        -0.0556
      4 C3         -1.2510   -0.2467   -0.0732 C.3       1 <0>         0.1209
      5 H1         -0.3642    0.3853   -0.0242 H         1 <0>         0.1598
      6 C4         -0.8278   -1.7160   -0.1262 C.3       1 <0>         0.1054
      7 N2          0.0444   -2.0144    1.0125 N.am      1 <0>        -0.7218
      8 C5          0.4577   -3.2783    1.2317 C.2       1 <0>         0.6143
      9 O1          0.1064   -4.1717    0.4840 O.2       1 <0>        -0.4885
     10 C6          1.3314   -3.5772    2.3724 C.2       1 <0>        -0.2221
     11 C7          1.8518   -4.7766    2.7507 C.2       1 <0>         0.0470
     12 C8          2.6771   -4.8555    3.8880 C.ar      1 <0>        -0.1290
     13 C9          3.3074   -6.0020    4.4372 C.ar      1 <0>        -0.0162
     14 C10         4.0781   -5.9056    5.5502 C.ar      1 <0>        -0.1518
     15 C11         4.2805   -4.6879    6.1938 C.ar      1 <0>         0.1618
     16 C12         3.6846   -3.5462    5.6915 C.ar      1 <0>        -0.1227
     17 C13         2.8996   -3.6311    4.5617 C.ar      1 <0>        -0.0606
     18 S1          1.9795   -2.4563    3.6002 S.3       1 <0>         0.1091
     19 F1          5.0527   -4.6225    7.3005 F         1 <0>        -0.1160
     20 Cl1         1.4978   -6.2066    1.8323 Cl        1 <0>        -0.0080
     21 C14        -2.1025   -0.0128    1.1480 C.2       1 <0>        -0.2646
     22 C15        -1.7533    0.5259    2.3418 C.2       1 <0>        -0.0739
     23 C16        -2.7126    0.6449    3.3298 C.2       1 <0>        -0.1718
     24 C17        -3.9743    0.2195    3.0756 C.2       1 <0>        -0.1093
     25 S2         -3.8350   -0.3663    1.3949 S.3       1 <0>         0.0637
     26 H2         -3.0615    1.7206   -2.0892 H         1 <0>         0.1320
     27 H3         -3.1217    1.5931   -0.3149 H         1 <0>         0.1244
     28 H4         -1.6310    2.1423   -1.1177 H         1 <0>         0.1267
     29 H5         -0.2536    0.5008   -2.3334 H         1 <0>         0.1285
     30 H6         -0.9217   -1.1282   -2.5947 H         1 <0>         0.1290
     31 H7         -1.7019    0.2846   -3.3454 H         1 <0>         0.1342
     32 H8         -1.7128   -2.3508   -0.0820 H         1 <0>         0.0994
     33 H9         -0.2903   -1.9061   -1.0552 H         1 <0>         0.1009
     34 H10         0.3245   -1.3022    1.6085 H         1 <0>         0.4060
     35 H11         3.1719   -6.9632    3.9638 H         1 <0>         0.1476
     36 H12         4.5454   -6.7950    5.9463 H         1 <0>         0.1539
     37 H13         3.8327   -2.5949    6.1808 H         1 <0>         0.1553
     38 H14        -0.7405    0.8568    2.5185 H         1 <0>         0.1442
     39 H15        -2.4606    1.0703    4.2900 H         1 <0>         0.1532
     40 H16        -4.8401    0.2347    3.7210 H         1 <0>         0.2014
     41 H17        -2.8167   -0.5334   -1.3501 H         1 <0>         0.4270
@<TRIPOS>BOND
     1    1    2 1
     2    1   26 1
     3    1   27 1
     4    1   28 1
     5    2    3 1
     6    2    4 1
     7    2   41 1
     8    3   29 1
     9    3   30 1
    10    3   31 1
    11    4    5 1
    12    4    6 1
    13    4   21 1
    14    6    7 1
    15    6   32 1
    16    6   33 1
    17    7    8 am
    18    7   34 1
    19    8    9 2
    20    8   10 1
    21   10   18 1
    22   10   11 2
    23   11   12 1
    24   11   20 1
    25   12   17 ar
    26   12   13 ar
    27   13   14 ar
    28   13   35 1
    29   14   15 ar
    30   14   36 1
    31   15   16 ar
    32   15   19 1
    33   16   17 ar
    34   16   37 1
    35   17   18 1
    36   21   25 1
    37   21   22 2
    38   22   23 1
    39   22   38 1
    40   23   24 2
    41   23   39 1
    42   24   25 1
    43   24   40 1
