@<TRIPOS>MOLECULE
ZINC40475338
   51    55     0     0     0
SMALL
USER_CHARGES

@<TRIPOS>ATOM
      1 C1         -0.0187    1.5258    0.0104 C.3       1 <0>        -0.1501
      2 C2          0.0021   -0.0041    0.0020 C.3       1 <0>         0.0508
      3 O1         -1.3386   -0.4987    0.0122 O.3       1 <0>        -0.3073
      4 C3         -1.4984   -1.8492    0.0064 C.ar      1 <0>         0.1082
      5 C4         -0.3893   -2.6797   -0.0028 C.ar      1 <0>        -0.1698
      6 C5         -0.5535   -4.0523   -0.0082 C.ar      1 <0>        -0.0369
      7 C6         -1.8231   -4.5996   -0.0047 C.ar      1 <0>        -0.1199
      8 C7         -2.9339   -3.7768    0.0040 C.ar      1 <0>        -0.1023
      9 C8         -2.7762   -2.4001    0.0157 C.ar      1 <0>         0.0732
     10 O2         -3.8679   -1.5893    0.0304 O.3       1 <0>        -0.4862
     11 C9          0.6539   -4.9539   -0.0182 C.3       1 <0>         0.0844
     12 H1          1.5620   -4.3511   -0.0200 H         1 <0>         0.0943
     13 C10         0.6357   -5.8359    1.1948 C.2       1 <0>        -0.2976
     14 C11         0.9549   -7.1592    1.3136 C.2       1 <0>         0.1147
     15 N1          0.8073   -7.6639    2.5368 N.2       1 <0>        -0.5567
     16 C12         0.4033   -6.9259    3.5487 C.2       1 <0>         0.2799
     17 S1          0.1541   -7.4096    5.2245 S.3       1 <0>        -0.7186
     18 S2          0.1815   -5.4071    2.8547 S.3       1 <0>         0.0720
     19 S3          1.5367   -8.0900   -0.0961 S.3       1 <0>         0.0083
     20 C13         1.8915   -6.7358   -1.2461 C.3       1 <0>        -0.1456
     21 H2          2.7832   -6.1836   -0.9493 H         1 <0>         0.1543
     22 C14         0.6234   -5.8304   -1.2465 C.3       1 <0>        -0.1161
     23 H3         -0.2695   -6.4554   -1.2267 H         1 <0>         0.1407
     24 C15         0.7405   -5.1947   -2.5961 C.2       1 <0>         0.5538
     25 O3          0.3495   -4.0936   -2.9191 O.2       1 <0>        -0.4381
     26 N2          1.3734   -6.1008   -3.3862 N.am      1 <0>        -0.5333
     27 C16         1.9476   -7.1401   -2.6939 C.2       1 <0>         0.5710
     28 O4          2.3957   -8.1726   -3.1440 O.2       1 <0>        -0.4303
     29 C17         1.4523   -5.9807   -4.7808 C.ar      1 <0>         0.1189
     30 C18         0.8717   -4.8932   -5.4192 C.ar      1 <0>        -0.1367
     31 C19         0.9510   -4.7776   -6.7933 C.ar      1 <0>        -0.0998
     32 C20         1.6079   -5.7437   -7.5330 C.ar      1 <0>        -0.0985
     33 C21         2.1872   -6.8280   -6.8999 C.ar      1 <0>        -0.0990
     34 C22         2.1161   -6.9461   -5.5256 C.ar      1 <0>        -0.1387
     35 C23         1.6922   -5.6148   -9.0321 C.3       1 <0>        -0.1131
     36 H4          1.0039    1.9031    0.0027 H         1 <0>         0.0767
     37 H5         -0.5459    1.8868   -0.8726 H         1 <0>         0.0643
     38 H6         -0.5289    1.8773    0.9072 H         1 <0>         0.0663
     39 H7          0.5123   -0.3556   -0.8948 H         1 <0>         0.0615
     40 H8          0.5293   -0.3651    0.8851 H         1 <0>         0.0629
     41 H9          0.6036   -2.2546   -0.0062 H         1 <0>         0.1298
     42 H10        -1.9473   -5.6725   -0.0093 H         1 <0>         0.1261
     43 H11        -3.9246   -4.2069    0.0063 H         1 <0>         0.1352
     44 H12        -4.1920   -1.3501   -0.8487 H         1 <0>         0.3817
     45 H13         0.3581   -4.1385   -4.8420 H         1 <0>         0.1535
     46 H14         0.4992   -3.9320   -7.2905 H         1 <0>         0.1285
     47 H15         2.6997   -7.5810   -7.4803 H         1 <0>         0.1290
     48 H16         2.5726   -7.7908   -5.0313 H         1 <0>         0.1520
     49 H17         2.5910   -5.0588   -9.2990 H         1 <0>         0.0701
     50 H18         1.7326   -6.6076   -9.4804 H         1 <0>         0.0664
     51 H19         0.8141   -5.0849   -9.4012 H         1 <0>         0.0662
@<TRIPOS>BOND
     1    1    2 1
     2    1   36 1
     3    1   37 1
     4    1   38 1
     5    2    3 1
     6    2   39 1
     7    2   40 1
     8    3    4 1
     9    4    9 ar
    10    4    5 ar
    11    5    6 ar
    12    5   41 1
    13    6    7 ar
    14    6   11 1
    15    7    8 ar
    16    7   42 1
    17    8    9 ar
    18    8   43 1
    19    9   10 1
    20   10   44 1
    21   11   12 1
    22   11   22 1
    23   11   13 1
    24   13   18 1
    25   13   14 2
    26   14   15 1
    27   14   19 1
    28   15   16 2
    29   16   17 1
    30   16   18 1
    31   19   20 1
    32   20   21 1
    33   20   27 1
    34   20   22 1
    35   22   23 1
    36   22   24 1
    37   24   25 2
    38   24   26 am
    39   26   27 am
    40   26   29 1
    41   27   28 2
    42   29   34 ar
    43   29   30 ar
    44   30   31 ar
    45   30   45 1
    46   31   32 ar
    47   31   46 1
    48   32   33 ar
    49   32   35 1
    50   33   34 ar
    51   33   47 1
    52   34   48 1
    53   35   49 1
    54   35   50 1
    55   35   51 1
