@<TRIPOS>MOLECULE
ZINC12863404
   59    63     0     0     0
SMALL
USER_CHARGES
(3R)-N-(5-ethyl-4-phenyl-thiazol-2-yl)-1-[2-(5-fluoro-1H-indol-3-yl)ethyl]-5-oxo-pyrrolidine-3-carboxamide
@<TRIPOS>ATOM
      1 C1         -0.9479    2.4747    3.2338 C.3       1 <0>        -0.1476
      2 C2         -0.9112    1.8547    1.8355 C.3       1 <0>        -0.0380
      3 C3         -2.1827    1.0824    1.5949 C.2       1 <0>        -0.1626
      4 C4         -2.5029   -0.2009    1.9405 C.2       1 <0>         0.1135
      5 N1         -3.6973   -0.6798    1.6263 N.2       1 <0>        -0.4875
      6 C5         -4.5811    0.0547    0.9770 C.2       1 <0>         0.3264
      7 S1         -3.6870    1.5888    0.7715 S.3       1 <0>         0.0190
      8 N2         -5.8656   -0.2764    0.5635 N.am      1 <0>        -0.6157
      9 C6         -6.3608   -1.5034    0.8202 C.2       1 <0>         0.5225
     10 O1         -5.6853   -2.3184    1.4120 O.2       1 <0>        -0.4579
     11 C7         -7.7540   -1.8626    0.3717 C.3       1 <0>        -0.1184
     12 H1         -7.8350   -1.8203   -0.7145 H         1 <0>         0.1296
     13 C8         -8.8043   -0.9461    1.0410 C.3       1 <0>        -0.1507
     14 C9         -9.9794   -1.8611    1.3068 C.2       1 <0>         0.5202
     15 O2        -11.1053   -1.4895    1.5620 O.2       1 <0>        -0.5186
     16 N3         -9.5942   -3.1459    1.2183 N.am      1 <0>        -0.6182
     17 C10        -8.1647   -3.2534    0.9038 C.3       1 <0>         0.1181
     18 C11       -10.4868   -4.2916    1.4105 C.3       1 <0>         0.1311
     19 C12       -11.1071   -4.6856    0.0686 C.3       1 <0>        -0.0585
     20 C13       -12.0253   -5.8641    0.2663 C.2       1 <0>        -0.1718
     21 C14       -11.7128   -7.1578    0.0909 C.2       1 <0>         0.0678
     22 N4        -12.7996   -7.9418    0.3670 N.pl3     1 <0>        -0.5922
     23 H2        -12.8163   -8.9102    0.3133 H         1 <0>         0.4193
     24 C15       -13.8686   -7.1502    0.7277 C.ar      1 <0>         0.0857
     25 C16       -13.4296   -5.8146    0.6802 C.ar      1 <0>        -0.0756
     26 C17       -14.3101   -4.7794    1.0005 C.ar      1 <0>        -0.1052
     27 C18       -15.6069   -5.0751    1.3619 C.ar      1 <0>         0.0735
     28 C19       -16.0390   -6.3953    1.4084 C.ar      1 <0>        -0.1300
     29 C20       -15.1810   -7.4264    1.0950 C.ar      1 <0>        -0.0996
     30 F1        -16.4623   -4.0766    1.6727 F         1 <0>        -0.1405
     31 C21        -1.5237   -1.0476    2.6644 C.ar      1 <0>        -0.0189
     32 C22        -0.1909   -1.0795    2.2577 C.ar      1 <0>        -0.1055
     33 C23         0.7170   -1.8648    2.9386 C.ar      1 <0>        -0.1204
     34 C24         0.3040   -2.6286    4.0155 C.ar      1 <0>        -0.1132
     35 C25        -1.0186   -2.6053    4.4200 C.ar      1 <0>        -0.1209
     36 C26        -1.9340   -1.8190    3.7505 C.ar      1 <0>        -0.0824
     37 H3         -1.8165    3.1278    3.3189 H         1 <0>         0.0569
     38 H4         -0.0398    3.0547    3.3980 H         1 <0>         0.0666
     39 H5         -1.0137    1.6834    3.9805 H         1 <0>         0.0601
     40 H6         -0.8192    2.6446    1.0901 H         1 <0>         0.0817
     41 H7         -0.0573    1.1815    1.7589 H         1 <0>         0.0959
     42 H8         -6.4059    0.3754    0.0902 H         1 <0>         0.4294
     43 H9         -8.4169   -0.5413    1.9760 H         1 <0>         0.1106
     44 H10        -9.0914   -0.1392    0.3669 H         1 <0>         0.1158
     45 H11        -8.0029   -4.0128    0.1388 H         1 <0>         0.0908
     46 H12        -7.5979   -3.4958    1.8028 H         1 <0>         0.0930
     47 H13        -9.9185   -5.1321    1.8089 H         1 <0>         0.0824
     48 H14       -11.2773   -4.0228    2.1112 H         1 <0>         0.0863
     49 H15       -11.6754   -3.8451   -0.3298 H         1 <0>         0.0758
     50 H16       -10.3166   -4.9544   -0.6321 H         1 <0>         0.0742
     51 H17       -10.7461   -7.5255   -0.2199 H         1 <0>         0.1736
     52 H18       -13.9769   -3.7527    0.9651 H         1 <0>         0.1369
     53 H19       -17.0575   -6.6149    1.6927 H         1 <0>         0.1391
     54 H20       -15.5275   -8.4486    1.1341 H         1 <0>         0.1311
     55 H21         0.1316   -0.4873    1.4141 H         1 <0>         0.1256
     56 H22         1.7509   -1.8866    2.6273 H         1 <0>         0.1257
     57 H23         1.0170   -3.2451    4.5426 H         1 <0>         0.1233
     58 H24        -1.3354   -3.2033    5.2617 H         1 <0>         0.1243
     59 H25        -2.9662   -1.8010    4.0676 H         1 <0>         0.1239
@<TRIPOS>BOND
     1    1    2 1
     2    1   37 1
     3    1   38 1
     4    1   39 1
     5    2    3 1
     6    2   40 1
     7    2   41 1
     8    3    7 1
     9    3    4 2
    10    4    5 1
    11    4   31 1
    12    5    6 2
    13    6    7 1
    14    6    8 1
    15    8    9 am
    16    8   42 1
    17    9   10 2
    18    9   11 1
    19   11   12 1
    20   11   17 1
    21   11   13 1
    22   13   14 1
    23   13   43 1
    24   13   44 1
    25   14   15 2
    26   14   16 am
    27   16   17 1
    28   16   18 1
    29   17   45 1
    30   17   46 1
    31   18   19 1
    32   18   47 1
    33   18   48 1
    34   19   20 1
    35   19   49 1
    36   19   50 1
    37   20   25 1
    38   20   21 2
    39   21   22 1
    40   21   51 1
    41   22   23 1
    42   22   24 1
    43   24   29 ar
    44   24   25 ar
    45   25   26 ar
    46   26   27 ar
    47   26   52 1
    48   27   28 ar
    49   27   30 1
    50   28   29 ar
    51   28   53 1
    52   29   54 1
    53   31   36 ar
    54   31   32 ar
    55   32   33 ar
    56   32   55 1
    57   33   34 ar
    58   33   56 1
    59   34   35 ar
    60   34   57 1
    61   35   36 ar
    62   35   58 1
    63   36   59 1
