@<TRIPOS>MOLECULE
ZINC09867748
   55    58     0     0     0
SMALL
USER_CHARGES
2-(1-ethyl-5-sulfamoyl-benzoimidazol-2-yl)sulfanyl-N-(2-phenoxyphenyl)-acetamide
@<TRIPOS>ATOM
      1 C1         -5.1115    7.1711   -4.5796 C.3       1 <0>        -0.1737
      2 C2         -3.6746    6.7059   -4.8239 C.3       1 <0>         0.1007
      3 N1         -3.5606    5.2817   -4.4998 N.pl3     1 <0>        -0.4707
      4 C3         -3.2340    4.7433   -3.2658 C.ar      1 <0>         0.1027
      5 C4         -2.9293    5.2903   -2.0288 C.ar      1 <0>        -0.1212
      6 C5         -2.6449    4.4618   -0.9627 C.ar      1 <0>        -0.0206
      7 C6         -2.6506    3.0841   -1.1226 C.ar      1 <0>        -0.6857
      8 C7         -2.9509    2.5237   -2.3439 C.ar      1 <0>         0.0530
      9 C8         -3.2468    3.3486   -3.4320 C.ar      1 <0>         0.0346
     10 N2         -3.5726    3.1028   -4.7281 N.2       1 <0>        -0.4858
     11 C9         -3.7576    4.2369   -5.3581 C.2       1 <0>         0.2478
     12 S1         -4.1955    4.3914   -7.0578 S.3       1 <0>         0.0893
     13 C10        -4.2765    2.6437   -7.5216 C.3       1 <0>        -0.1497
     14 C11        -4.6463    2.5271   -8.9778 C.2       1 <0>         0.5379
     15 O1         -4.8364    3.5272   -9.6373 O.2       1 <0>        -0.5006
     16 N3         -4.7658    1.3115   -9.5475 N.am      1 <0>        -0.6539
     17 C12        -5.1296    1.2025  -10.8961 C.ar      1 <0>         0.1396
     18 C13        -4.9738    2.2860  -11.7482 C.ar      1 <0>        -0.1337
     19 C14        -5.3328    2.1760  -13.0782 C.ar      1 <0>        -0.0926
     20 C15        -5.8477    0.9877  -13.5630 C.ar      1 <0>        -0.1234
     21 C16        -6.0059   -0.0964  -12.7201 C.ar      1 <0>        -0.0989
     22 C17        -5.6434    0.0039  -11.3863 C.ar      1 <0>         0.0493
     23 O2         -5.7931   -1.0631  -10.5573 O.3       1 <0>        -0.2558
     24 C18        -6.9012   -1.1105   -9.7724 C.ar      1 <0>         0.1114
     25 C19        -7.7838   -0.0400   -9.7504 C.ar      1 <0>        -0.1909
     26 C20        -8.9118   -0.0925   -8.9549 C.ar      1 <0>        -0.0826
     27 C21        -9.1569   -1.2067   -8.1735 C.ar      1 <0>        -0.1490
     28 C22        -8.2764   -2.2727   -8.1895 C.ar      1 <0>        -0.0823
     29 C23        -7.1494   -2.2272   -8.9869 C.ar      1 <0>        -0.1438
     30 S2         -2.2776    2.0431    0.2492 S.o2      1 <0>         2.7076
     31 O3         -2.8874    0.7873   -0.0163 O.2       1 <0>        -0.9578
     32 O4         -2.5629    2.7962    1.4199 O.2       1 <0>        -0.9549
     33 N4         -0.6416    1.7864    0.2385 N.pl3     1 <0>        -1.2439
     34 H1         -5.1963    8.2307   -4.8207 H         1 <0>         0.0846
     35 H2         -5.7910    6.5992   -5.2115 H         1 <0>         0.0687
     36 H3         -5.3710    7.0148   -3.5325 H         1 <0>         0.0650
     37 H4         -2.9951    7.2778   -4.1920 H         1 <0>         0.0990
     38 H5         -3.4152    6.8622   -5.8710 H         1 <0>         0.1004
     39 H6         -2.9189    6.3624   -1.8988 H         1 <0>         0.1341
     40 H7         -2.4120    4.8890    0.0015 H         1 <0>         0.1506
     41 H8         -2.9582    1.4500   -2.4602 H         1 <0>         0.1504
     42 H9         -3.3051    2.1782   -7.3550 H         1 <0>         0.1343
     43 H10        -5.0292    2.1411   -6.9142 H         1 <0>         0.1340
     44 H11        -4.6000    0.5120   -9.0238 H         1 <0>         0.4194
     45 H12        -4.5716    3.2153  -11.3724 H         1 <0>         0.1687
     46 H13        -5.2107    3.0202  -13.7406 H         1 <0>         0.1339
     47 H14        -6.1266    0.9063  -14.6032 H         1 <0>         0.1336
     48 H15        -6.4080   -1.0231  -13.1021 H         1 <0>         0.1368
     49 H16        -7.5909    0.8320  -10.3577 H         1 <0>         0.1255
     50 H17        -9.6010    0.7389   -8.9403 H         1 <0>         0.1252
     51 H18       -10.0375   -1.2442   -7.5493 H         1 <0>         0.1259
     52 H19        -8.4701   -3.1417   -7.5782 H         1 <0>         0.1324
     53 H20        -6.4617   -3.0600   -8.9987 H         1 <0>         0.1332
     54 H21        -0.2926    0.8849    0.1590 H         1 <0>         0.4229
     55 H22        -0.0323    2.5380    0.3077 H         1 <0>         0.4191
@<TRIPOS>BOND
     1    1    2 1
     2    1   34 1
     3    1   35 1
     4    1   36 1
     5    2    3 1
     6    2   37 1
     7    2   38 1
     8    3   11 1
     9    3    4 1
    10    4    9 ar
    11    4    5 ar
    12    5    6 ar
    13    5   39 1
    14    6    7 ar
    15    6   40 1
    16    7    8 ar
    17    7   30 1
    18    8    9 ar
    19    8   41 1
    20    9   10 1
    21   10   11 2
    22   11   12 1
    23   12   13 1
    24   13   14 1
    25   13   42 1
    26   13   43 1
    27   14   15 2
    28   14   16 am
    29   16   17 1
    30   16   44 1
    31   17   22 ar
    32   17   18 ar
    33   18   19 ar
    34   18   45 1
    35   19   20 ar
    36   19   46 1
    37   20   21 ar
    38   20   47 1
    39   21   22 ar
    40   21   48 1
    41   22   23 1
    42   23   24 1
    43   24   29 ar
    44   24   25 ar
    45   25   26 ar
    46   25   49 1
    47   26   27 ar
    48   26   50 1
    49   27   28 ar
    50   27   51 1
    51   28   29 ar
    52   28   52 1
    53   29   53 1
    54   30   31 2
    55   30   32 2
    56   30   33 1
    57   33   54 1
    58   33   55 1
