@<TRIPOS>MOLECULE
ZINC15225615
   57    60     0     0     0
SMALL
USER_CHARGES
N-[(Z)-2-[3-(4-chlorophenyl)-1-phenyl-pyrazol-4-yl]-1-(isopropylcarbamoyl)vinyl]furan-2-carboxamide
@<TRIPOS>ATOM
      1 C1          0.6631    6.0391   -0.8306 C.3       1 <0>        -0.1607
      2 C2         -0.7409    5.4416   -0.7180 C.3       1 <0>         0.1392
      3 C3         -1.6135    5.9712   -1.8577 C.3       1 <0>        -0.1639
      4 N1         -0.6586    3.9815   -0.8039 N.am      1 <0>        -0.7103
      5 C4         -1.6209    3.2184   -0.2489 C.2       1 <0>         0.5693
      6 O1         -2.6019    3.7413    0.2468 O.2       1 <0>        -0.5358
      7 C5         -1.4861    1.7583   -0.2422 C.2       1 <0>         0.0233
      8 C6         -2.4921    0.9872    0.2367 C.2       1 <0>         0.0249
      9 C7         -2.3068   -0.4636    0.3674 C.2       1 <0>        -0.2068
     10 C8         -1.1084   -1.1503    0.3452 C.2       1 <0>         0.0867
     11 N2         -1.3815   -2.4605    0.4995 N.pl3     1 <0>        -0.3069
     12 N3         -2.7626   -2.6416    0.6146 N.2       1 <0>        -0.2661
     13 C9         -3.3584   -1.4721    0.5410 C.2       1 <0>         0.1529
     14 C10        -4.8168   -1.2199    0.6187 C.ar      1 <0>        -0.0186
     15 C11        -5.2952   -0.0671    1.2402 C.ar      1 <0>        -0.0801
     16 C12        -6.6537    0.1650    1.3061 C.ar      1 <0>        -0.1062
     17 C13        -7.5417   -0.7493    0.7652 C.ar      1 <0>        -0.0221
     18 C14        -7.0721   -1.8979    0.1512 C.ar      1 <0>        -0.1100
     19 C15        -5.7154   -2.1374    0.0757 C.ar      1 <0>        -0.0732
     20 Cl1        -9.2500   -0.4547    0.8578 Cl        1 <0>        -0.0626
     21 C16        -0.4274   -3.4854    0.5331 C.ar      1 <0>         0.1490
     22 C17         0.9219   -3.1845    0.4021 C.ar      1 <0>        -0.1359
     23 C18         1.8606   -4.1969    0.4405 C.ar      1 <0>        -0.0905
     24 C19         1.4572   -5.5101    0.5987 C.ar      1 <0>        -0.1225
     25 C20         0.1139   -5.8136    0.7241 C.ar      1 <0>        -0.0941
     26 C21        -0.8293   -4.8052    0.6918 C.ar      1 <0>        -0.1136
     27 N4         -0.3170    1.1604   -0.7311 N.am      1 <0>        -0.6721
     28 C22         0.8750    1.4598   -0.1780 C.2       1 <0>         0.5930
     29 O2          0.9486    2.3181    0.6820 O.2       1 <0>        -0.4849
     30 C23         2.0834    0.7516   -0.6122 C.2       1 <0>        -0.1005
     31 C24         3.3474    0.9556   -0.1374 C.2       1 <0>        -0.1014
     32 C25         4.1863    0.0672   -0.8283 C.2       1 <0>        -0.2231
     33 C26         3.4076   -0.6312   -1.6837 C.2       1 <0>         0.0054
     34 O3          2.1403   -0.2197   -1.5468 O.3       1 <0>        -0.1667
     35 H1          1.1029    5.7557   -1.7868 H         1 <0>         0.0577
     36 H2          0.6018    7.1255   -0.7667 H         1 <0>         0.0735
     37 H3          1.2848    5.6618   -0.0187 H         1 <0>         0.0643
     38 H4         -1.1807    5.7251    0.2382 H         1 <0>         0.0891
     39 H5         -1.6748    7.0576   -1.7938 H         1 <0>         0.0665
     40 H6         -1.1737    5.6878   -2.8139 H         1 <0>         0.0546
     41 H7         -2.6137    5.5455   -1.7775 H         1 <0>         0.0627
     42 H8          0.0886    3.5639   -1.2603 H         1 <0>         0.3949
     43 H9         -3.4303    1.4397    0.5223 H         1 <0>         0.1594
     44 H10        -0.1273   -0.7143    0.2279 H         1 <0>         0.1830
     45 H11        -4.6035    0.6445    1.6663 H         1 <0>         0.1410
     46 H12        -7.0252    1.0595    1.7839 H         1 <0>         0.1427
     47 H13        -7.7689   -2.6079   -0.2690 H         1 <0>         0.1399
     48 H14        -5.3501   -3.0340   -0.4028 H         1 <0>         0.1376
     49 H15         1.2373   -2.1595    0.2744 H         1 <0>         0.1247
     50 H16         2.9104   -3.9631    0.3424 H         1 <0>         0.1344
     51 H17         2.1929   -6.3004    0.6246 H         1 <0>         0.1318
     52 H18        -0.1980   -6.8402    0.8472 H         1 <0>         0.1352
     53 H19        -1.8782   -5.0428    0.7902 H         1 <0>         0.1398
     54 H20        -0.3651    0.5341   -1.4702 H         1 <0>         0.4147
     55 H21         3.6441    1.6634    0.6226 H         1 <0>         0.1633
     56 H22         5.2535   -0.0379   -0.7006 H         1 <0>         0.1608
     57 H23         3.7499   -1.3983   -2.3625 H         1 <0>         0.2135
@<TRIPOS>BOND
     1    1    2 1
     2    1   35 1
     3    1   36 1
     4    1   37 1
     5    2    3 1
     6    2    4 1
     7    2   38 1
     8    3   39 1
     9    3   40 1
    10    3   41 1
    11    4    5 am
    12    4   42 1
    13    5    6 2
    14    5    7 1
    15    7    8 2
    16    7   27 1
    17    8    9 1
    18    8   43 1
    19    9   13 1
    20    9   10 2
    21   10   11 1
    22   10   44 1
    23   11   12 1
    24   11   21 1
    25   12   13 2
    26   13   14 1
    27   14   19 ar
    28   14   15 ar
    29   15   16 ar
    30   15   45 1
    31   16   17 ar
    32   16   46 1
    33   17   18 ar
    34   17   20 1
    35   18   19 ar
    36   18   47 1
    37   19   48 1
    38   21   26 ar
    39   21   22 ar
    40   22   23 ar
    41   22   49 1
    42   23   24 ar
    43   23   50 1
    44   24   25 ar
    45   24   51 1
    46   25   26 ar
    47   25   52 1
    48   26   53 1
    49   27   28 am
    50   27   54 1
    51   28   29 2
    52   28   30 1
    53   30   34 1
    54   30   31 2
    55   31   32 1
    56   31   55 1
    57   32   33 2
    58   32   56 1
    59   33   34 1
    60   33   57 1
