@<TRIPOS>MOLECULE
ZINC39998213
   49    52     0     0     0
SMALL
USER_CHARGES

@<TRIPOS>ATOM
      1 C1         -0.0184    1.5028    0.0103 C.3       1 <0>        -0.1143
      2 C2          0.0021   -0.0041    0.0020 C.ar      1 <0>        -0.0857
      3 C3          0.0057   -0.6887   -1.1989 C.ar      1 <0>        -0.1217
      4 C4          0.0245   -2.0709   -1.2065 C.ar      1 <0>        -0.0958
      5 C5          0.0400   -2.7685   -0.0132 C.ar      1 <0>        -0.0748
      6 C6          0.0373   -2.0839    1.1877 C.ar      1 <0>        -0.0958
      7 C7          0.0229   -0.7016    1.1953 C.ar      1 <0>        -0.1217
      8 C8          0.0595   -4.2753   -0.0215 C.3       1 <0>        -0.0660
      9 S1          1.7773   -4.8578   -0.0342 S.3       1 <0>         0.0056
     10 C9          1.6320   -6.6138   -0.0429 C.2       1 <0>        -0.0674
     11 N1          0.5482   -7.3788   -0.0470 N.2       1 <0>        -0.2431
     12 N2          0.6200   -8.6380   -0.0539 N.2       1 <0>        -0.3408
     13 C10         1.7894   -9.2731   -0.0575 C.2       1 <0>         0.3642
     14 S2          2.9050   -7.8727   -0.0568 S.3       1 <0>        -0.0614
     15 N3          2.0596  -10.6040   -0.0641 N.2       1 <0>        -0.5996
     16 C11         1.0736  -11.4756   -0.0684 C.2       1 <0>         0.4649
     17 O1         -0.2098  -11.0456   -0.0663 O.3       1 <0>        -0.6247
     18 C12         1.3654  -12.9128   -0.0756 C.2       1 <0>        -0.0120
     19 C13         0.3260  -13.8316   -0.0801 C.2       1 <0>         0.0177
     20 C14         0.6056  -15.2087   -0.0870 C.2       1 <0>         0.0058
     21 C15        -0.3333  -16.2294   -0.0976 C.2       1 <0>        -0.1554
     22 C16         0.3766  -17.4302   -0.1013 C.2       1 <0>        -0.1857
     23 C17         1.7165  -17.1070   -0.0929 C.2       1 <0>         0.0340
     24 O2          1.8348  -15.7673   -0.0902 O.3       1 <0>        -0.1497
     25 C18         2.8341  -18.0699   -0.0932 C.ar      1 <0>        -0.0119
     26 C19         2.5771  -19.4435   -0.1084 C.ar      1 <0>        -0.0851
     27 C20         3.6264  -20.3380   -0.1091 C.ar      1 <0>        -0.1084
     28 C21         4.9328  -19.8779   -0.0947 C.ar      1 <0>        -0.0308
     29 C22         5.1945  -18.5177   -0.0791 C.ar      1 <0>        -0.1049
     30 C23         4.1546  -17.6124   -0.0841 C.ar      1 <0>        -0.0853
     31 Cl1         6.2481  -21.0109   -0.0956 Cl        1 <0>        -0.0691
     32 C24         2.7232  -13.3677   -0.0778 C.1       1 <0>         0.2712
     33 N4          3.8003  -13.7286   -0.0796 N.1       1 <0>        -0.4187
     34 H1          1.0042    1.8801    0.0026 H         1 <0>         0.0698
     35 H2         -0.5455    1.8639   -0.8728 H         1 <0>         0.0651
     36 H3         -0.5286    1.8543    0.9071 H         1 <0>         0.0651
     37 H4         -0.0064   -0.1436   -2.1312 H         1 <0>         0.1225
     38 H5          0.0266   -2.6057   -2.1448 H         1 <0>         0.1266
     39 H6          0.0491   -2.6289    2.1200 H         1 <0>         0.1266
     40 H7          0.0245   -0.1667    2.1335 H         1 <0>         0.1225
     41 H8         -0.4447   -4.6501    0.8693 H         1 <0>         0.0999
     42 H9         -0.4546   -4.6404   -0.9106 H         1 <0>         0.1000
     43 H10        -0.6981  -13.4884   -0.0784 H         1 <0>         0.1855
     44 H11        -1.4074  -16.1164   -0.1018 H         1 <0>         0.1643
     45 H12        -0.0440  -18.4248   -0.1087 H         1 <0>         0.1569
     46 H13         1.5590  -19.8035   -0.1193 H         1 <0>         0.1396
     47 H14         3.4291  -21.3998   -0.1205 H         1 <0>         0.1396
     48 H15         6.2154  -18.1655   -0.0676 H         1 <0>         0.1391
     49 H16         4.3600  -16.5521   -0.0768 H         1 <0>         0.1433
@<TRIPOS>BOND
     1    1    2 1
     2    1   34 1
     3    1   35 1
     4    1   36 1
     5    2    7 ar
     6    2    3 ar
     7    3    4 ar
     8    3   37 1
     9    4    5 ar
    10    4   38 1
    11    5    6 ar
    12    5    8 1
    13    6    7 ar
    14    6   39 1
    15    7   40 1
    16    8    9 1
    17    8   41 1
    18    8   42 1
    19    9   10 1
    20   10   14 1
    21   10   11 2
    22   11   12 1
    23   12   13 2
    24   13   14 1
    25   13   15 1
    26   15   16 2
    27   16   17 1
    28   16   18 1
    29   18   19 2
    30   18   32 1
    31   19   20 1
    32   19   43 1
    33   20   24 1
    34   20   21 2
    35   21   22 1
    36   21   44 1
    37   22   23 2
    38   22   45 1
    39   23   24 1
    40   23   25 1
    41   25   30 ar
    42   25   26 ar
    43   26   27 ar
    44   26   46 1
    45   27   28 ar
    46   27   47 1
    47   28   29 ar
    48   28   31 1
    49   29   30 ar
    50   29   48 1
    51   30   49 1
    52   32   33 3
