@<TRIPOS>MOLECULE
ZINC13551943
   60    63     0     0     0
SMALL
USER_CHARGES
4-[(E)-hydroxy-[(2R)-2-(4-isopropylphenyl)-1-(5-methylisoxazol-3-yl)-4,5-dioxo-pyrrolidin-3-ylidene]methyl]-3,5-dimethyl-1H-pyrrole-2-carboxamide
@<TRIPOS>ATOM
      1 C1          6.8266   -4.9476    3.7055 C.3       1 <0>        -0.0762
      2 C2          6.0960   -3.6307    3.6508 C.2       1 <0>        -0.0130
      3 C3          4.7987   -3.4394    3.3198 C.2       1 <0>        -0.2347
      4 C4          4.6227   -2.0336    3.4223 C.2       1 <0>         0.2637
      5 N1          5.7776   -1.5475    3.7956 N.2       1 <0>        -0.3670
      6 O1          6.6038   -2.4206    3.9263 O.3       1 <0>         0.1027
      7 N2          3.4522   -1.3169    3.1794 N.am      1 <0>        -0.5072
      8 C5          3.3290    0.1437    3.1934 C.3       1 <0>         0.2422
      9 H1          3.9793    0.5827    2.4368 H         1 <0>         0.1048
     10 C6          1.8845    0.4584    2.8802 C.2       1 <0>        -0.3340
     11 C7          1.3082    1.7127    2.7897 C.2       1 <0>         0.3544
     12 C8         -0.1195    1.8437    2.4680 C.2       1 <0>        -0.2465
     13 C9         -1.1440    2.2719    3.3449 C.2       1 <0>        -0.0175
     14 C10        -2.3096    2.2458    2.6393 C.2       1 <0>        -0.0644
     15 N3         -2.0326    1.8209    1.3576 N.pl3     1 <0>        -0.5211
     16 H2         -2.6850    1.7164    0.6474 H         1 <0>         0.4212
     17 C11        -0.7181    1.5718    1.2479 C.2       1 <0>         0.1482
     18 C12        -0.0127    1.0858    0.0080 C.3       1 <0>        -0.1053
     19 C13        -3.6344    2.6136    3.1549 C.2       1 <0>         0.5946
     20 O2         -3.7577    2.9813    4.3082 O.2       1 <0>        -0.5228
     21 N4         -4.7137    2.5439    2.3507 N.am      1 <0>        -0.8552
     22 C14        -0.9778    2.6792    4.7863 C.3       1 <0>        -0.1018
     23 O3          2.0576    2.8164    2.9970 O.3       1 <0>        -0.4262
     24 C15         1.2478   -0.7755    2.6939 C.2       1 <0>         0.4009
     25 O4          0.0719   -0.9382    2.4203 O.2       1 <0>        -0.4012
     26 C16         2.2548   -1.8523    2.8882 C.2       1 <0>         0.4870
     27 O5          2.0279   -3.0416    2.7976 O.2       1 <0>        -0.4687
     28 C17         3.6895    0.6761    4.5564 C.ar      1 <0>        -0.0935
     29 C18         3.3283   -0.0267    5.6906 C.ar      1 <0>        -0.0945
     30 C19         3.6627    0.4594    6.9407 C.ar      1 <0>        -0.1133
     31 C20         4.3504    1.6530    7.0569 C.ar      1 <0>        -0.0668
     32 C21         4.7070    2.3584    5.9229 C.ar      1 <0>        -0.1170
     33 C22         4.3763    1.8701    4.6726 C.ar      1 <0>        -0.0794
     34 C23         4.7117    2.1848    8.4199 C.3       1 <0>        -0.0579
     35 C24         3.4359    2.4131    9.2329 C.3       1 <0>        -0.1443
     36 C25         5.6027    1.1725    9.1426 C.3       1 <0>        -0.1447
     37 H3          7.8595   -4.7777    4.0094 H         1 <0>         0.0856
     38 H4          6.3390   -5.6039    4.4264 H         1 <0>         0.0929
     39 H5          6.8097   -5.4137    2.7204 H         1 <0>         0.0931
     40 H6          4.0668   -4.1829    3.0406 H         1 <0>         0.1814
     41 H7          0.0021   -0.0041    0.0020 H         1 <0>         0.0913
     42 H8          1.0099    1.4631    0.0003 H         1 <0>         0.0883
     43 H9         -0.5399    1.4469   -0.8751 H         1 <0>         0.0787
     44 H10        -4.6153    2.2508    1.4313 H         1 <0>         0.3952
     45 H11        -5.5888    2.7869    2.6913 H         1 <0>         0.4107
     46 H12        -0.7818    3.7500    4.8410 H         1 <0>         0.0758
     47 H13        -1.8898    2.4481    5.3366 H         1 <0>         0.0901
     48 H14        -0.1415    2.1339    5.2238 H         1 <0>         0.0658
     49 H15         1.4870    3.6310    2.8934 H         1 <0>         0.4158
     50 H16         2.7878   -0.9573    5.6000 H         1 <0>         0.1076
     51 H17         3.3844   -0.0919    7.8267 H         1 <0>         0.1187
     52 H18         5.2443    3.2909    6.0136 H         1 <0>         0.1218
     53 H19         4.6549    2.4212    3.7866 H         1 <0>         0.1233
     54 H20         5.2472    3.1280    8.3116 H         1 <0>         0.0775
     55 H21         2.9004    1.4699    9.3412 H         1 <0>         0.0560
     56 H22         3.6973    2.7978   10.2187 H         1 <0>         0.0582
     57 H23         2.8011    3.1343    8.7181 H         1 <0>         0.0561
     58 H24         5.8641    1.5572   10.1284 H         1 <0>         0.0583
     59 H25         5.0672    0.2293    9.2508 H         1 <0>         0.0555
     60 H26         6.5117    1.0099    8.5633 H         1 <0>         0.0563
@<TRIPOS>BOND
     1    1    2 1
     2    1   37 1
     3    1   38 1
     4    1   39 1
     5    2    6 1
     6    2    3 2
     7    3    4 1
     8    3   40 1
     9    4    5 2
    10    4    7 1
    11    5    6 1
    12    7   26 am
    13    7    8 1
    14    8    9 1
    15    8   10 1
    16    8   28 1
    17   10   11 2
    18   10   24 1
    19   11   12 1
    20   11   23 1
    21   12   17 2
    22   12   13 1
    23   13   14 2
    24   13   22 1
    25   14   15 1
    26   14   19 1
    27   15   16 1
    28   15   17 1
    29   17   18 1
    30   18   41 1
    31   18   42 1
    32   18   43 1
    33   19   20 2
    34   19   21 am
    35   21   44 1
    36   21   45 1
    37   22   46 1
    38   22   47 1
    39   22   48 1
    40   23   49 1
    41   24   25 2
    42   24   26 1
    43   26   27 2
    44   28   33 ar
    45   28   29 ar
    46   29   30 ar
    47   29   50 1
    48   30   31 ar
    49   30   51 1
    50   31   32 ar
    51   31   34 1
    52   32   33 ar
    53   32   52 1
    54   33   53 1
    55   34   35 1
    56   34   36 1
    57   34   54 1
    58   35   55 1
    59   35   56 1
    60   35   57 1
    61   36   58 1
    62   36   59 1
    63   36   60 1
