@<TRIPOS>MOLECULE
ZINC35025007
   81    83     0     0     0
SMALL
USER_CHARGES

@<TRIPOS>ATOM
      1 C1          1.2175    1.6957   -2.2626 C.3       1 <0>        -0.1030
      2 C2          1.3991    0.2151   -2.0484 C.ar      1 <0>        -0.1319
      3 C3          0.4346   -0.6658   -2.4835 C.ar      1 <0>        -0.0342
      4 C4          0.6044   -2.0392   -2.2847 C.ar      1 <0>        -0.1756
      5 C5          1.7540   -2.5123   -1.6442 C.ar      1 <0>        -0.0342
      6 C6          2.7133   -1.6248   -1.2123 C.ar      1 <0>        -0.2250
      7 C7          2.5430   -0.2598   -1.4168 C.ar      1 <0>         0.1486
      8 O1          3.4936    0.6115   -0.9940 O.3       1 <0>        -0.3056
      9 C8          4.6925    0.0518   -0.4543 C.3       1 <0>         0.0750
     10 C9          5.8381    1.0540   -0.6098 C.3       1 <0>        -0.1492
     11 C10         4.4865   -0.2611    1.0291 C.3       1 <0>        -0.1795
     12 C11        -0.4273   -2.9873   -2.7491 C.2       1 <0>         0.5055
     13 C12        -0.2095   -4.4313   -2.6155 C.2       1 <0>        -0.4927
     14 C13        -0.1259   -5.2145   -1.3262 C.3       1 <0>         0.2666
     15 H1          0.7059   -4.8532   -0.7215 H         1 <0>         0.0765
     16 N1          0.0996   -6.6128   -1.7107 N.am      1 <0>        -0.6135
     17 C14         0.1465   -6.6698   -3.0541 C.2       1 <0>         0.5170
     18 O2          0.3199   -7.6820   -3.7034 O.2       1 <0>        -0.5236
     19 C15        -0.0504   -5.3202   -3.6234 C.2       1 <0>         0.2585
     20 O3         -0.0664   -5.0205   -4.9428 O.3       1 <0>        -0.6386
     21 C16         0.2475   -7.7459   -0.7940 C.3       1 <0>         0.1182
     22 C17        -1.1263   -8.3591   -0.5154 C.3       1 <0>        -0.0473
     23 N2         -0.9780   -9.4953    0.4038 N.4       1 <0>        -0.3820
     24 C18        -2.3059  -10.0090    0.7656 C.3       1 <0>        -0.0455
     25 C19        -0.2039  -10.5578   -0.2518 C.3       1 <0>        -0.0525
     26 C20        -1.4173   -5.0897   -0.5595 C.ar      1 <0>        -0.0770
     27 C21        -2.5568   -5.7227   -1.0202 C.ar      1 <0>        -0.1025
     28 C22        -3.7439   -5.6113   -0.3206 C.ar      1 <0>        -0.1770
     29 C23        -3.7933   -4.8644    0.8455 C.ar      1 <0>         0.0986
     30 C24        -2.6463   -4.2277    1.3095 C.ar      1 <0>         0.1028
     31 C25        -1.4585   -4.3474    0.6059 C.ar      1 <0>        -0.1652
     32 O4         -2.6898   -3.4935    2.4534 O.3       1 <0>        -0.3061
     33 C26        -1.5037   -2.7825    2.8134 C.3       1 <0>         0.0255
     34 O5         -4.9604   -4.7535    1.5348 O.3       1 <0>        -0.3045
     35 C27        -6.0974   -5.4335    0.9991 C.3       1 <0>         0.0583
     36 C28        -7.3077   -5.1944    1.9040 C.3       1 <0>        -0.1140
     37 C29        -8.5250   -5.9225    1.3304 C.3       1 <0>        -0.0948
     38 C30        -8.2817   -7.4325    1.3705 C.3       1 <0>        -0.1512
     39 C31        -9.7620   -5.5829    2.1644 C.3       1 <0>        -0.1480
     40 O6         -1.4586   -2.5706   -3.2429 O.2       1 <0>        -0.4699
     41 H2          1.6455    1.9789   -3.2242 H         1 <0>         0.0671
     42 H3          0.1545    1.9365   -2.2530 H         1 <0>         0.0647
     43 H4          1.7211    2.2426   -1.4655 H         1 <0>         0.0682
     44 H5         -0.4519   -0.2964   -2.9774 H         1 <0>         0.1361
     45 H6          1.8887   -3.5725   -1.4884 H         1 <0>         0.1311
     46 H7          3.6012   -1.9893   -0.7172 H         1 <0>         0.1295
     47 H8          4.9377   -0.8660   -0.9886 H         1 <0>         0.0746
     48 H9          5.5930    1.9719   -0.0755 H         1 <0>         0.0668
     49 H10         6.7527    0.6271   -0.1981 H         1 <0>         0.0762
     50 H11         5.9849    1.2769   -1.6666 H         1 <0>         0.0657
     51 H12         4.3293    0.6675    1.5779 H         1 <0>         0.0667
     52 H13         3.6149   -0.9049    1.1470 H         1 <0>         0.0634
     53 H14         5.3686   -0.7688    1.4193 H         1 <0>         0.0703
     54 H15         0.8956   -8.4967   -1.2460 H         1 <0>         0.0987
     55 H16         0.6881   -7.4013    0.1415 H         1 <0>         0.0957
     56 H17        -1.7744   -7.6083   -0.0634 H         1 <0>         0.1400
     57 H18        -1.5669   -8.7037   -1.4509 H         1 <0>         0.1334
     58 H19        -2.8268  -10.3354   -0.1345 H         1 <0>         0.1212
     59 H20        -2.1959  -10.8521    1.4477 H         1 <0>         0.1228
     60 H21        -2.8803   -9.2207    1.2521 H         1 <0>         0.1217
     61 H22        -0.7249  -10.8842   -1.1519 H         1 <0>         0.1234
     62 H23         0.7813  -10.1767   -0.5203 H         1 <0>         0.1250
     63 H24        -0.0939  -11.4009    0.4302 H         1 <0>         0.1225
     64 H25        -2.5196   -6.3051   -1.9289 H         1 <0>         0.1223
     65 H26        -4.6328   -6.1062   -0.6830 H         1 <0>         0.1323
     66 H27        -0.5660   -3.8573    0.9658 H         1 <0>         0.1360
     67 H28        -1.6467   -2.3043    3.7824 H         1 <0>         0.1002
     68 H29        -0.6665   -3.4781    2.8715 H         1 <0>         0.0529
     69 H30        -1.2930   -2.0226    2.0608 H         1 <0>         0.0583
     70 H31        -6.3102   -5.0539   -0.0003 H         1 <0>         0.0621
     71 H32        -5.8895   -6.5022    0.9452 H         1 <0>         0.0586
     72 H33        -7.0949   -5.5740    2.9033 H         1 <0>         0.0732
     73 H34        -7.5156   -4.1258    1.9578 H         1 <0>         0.0760
     74 H35        -8.6843   -5.6074    0.2992 H         1 <0>         0.0740
     75 H36        -8.1224   -7.7476    2.4017 H         1 <0>         0.0560
     76 H37        -9.1490   -7.9512    0.9619 H         1 <0>         0.0577
     77 H38        -7.4005   -7.6744    0.7764 H         1 <0>         0.0523
     78 H39        -9.9353   -4.5072    2.1358 H         1 <0>         0.0578
     79 H40       -10.6293   -6.1016    1.7558 H         1 <0>         0.0580
     80 H41        -9.6027   -5.8980    3.1956 H         1 <0>         0.0561
     81 H42        -0.4958   -9.1932    1.2370 H         1 <0>         0.4243
@<TRIPOS>BOND
     1    1    2 1
     2    1   41 1
     3    1   42 1
     4    1   43 1
     5    2    7 ar
     6    2    3 ar
     7    3    4 ar
     8    3   44 1
     9    4    5 ar
    10    4   12 1
    11    5    6 ar
    12    5   45 1
    13    6    7 ar
    14    6   46 1
    15    7    8 1
    16    8    9 1
    17    9   10 1
    18    9   11 1
    19    9   47 1
    20   10   48 1
    21   10   49 1
    22   10   50 1
    23   11   51 1
    24   11   52 1
    25   11   53 1
    26   12   13 1
    27   12   40 2
    28   13   19 2
    29   13   14 1
    30   14   16 1
    31   14   26 1
    32   14   15 1
    33   16   21 1
    34   16   17 am
    35   17   18 2
    36   17   19 1
    37   19   20 1
    38   21   22 1
    39   21   54 1
    40   21   55 1
    41   22   23 1
    42   22   56 1
    43   22   57 1
    44   23   24 1
    45   23   25 1
    46   23   81 1
    47   24   58 1
    48   24   59 1
    49   24   60 1
    50   25   61 1
    51   25   62 1
    52   25   63 1
    53   26   31 ar
    54   26   27 ar
    55   27   28 ar
    56   27   64 1
    57   28   29 ar
    58   28   65 1
    59   29   30 ar
    60   29   34 1
    61   30   31 ar
    62   30   32 1
    63   31   66 1
    64   32   33 1
    65   33   67 1
    66   33   68 1
    67   33   69 1
    68   34   35 1
    69   35   36 1
    70   35   70 1
    71   35   71 1
    72   36   37 1
    73   36   72 1
    74   36   73 1
    75   37   38 1
    76   37   39 1
    77   37   74 1
    78   38   75 1
    79   38   76 1
    80   38   77 1
    81   39   78 1
    82   39   79 1
    83   39   80 1
