@<TRIPOS>MOLECULE
ZINC19823648
   71    74     0     0     0
SMALL
USER_CHARGES
1-[(5,7-dimethyl-2-oxo-1H-quinolin-3-yl)methyl]-1-(3-morpholinopropyl)-3-[(1S)-1-phenylethyl]thiourea
@<TRIPOS>ATOM
      1 C1         -1.2973   -0.7674    0.0103 C.3       1 <0>        -0.1243
      2 C2          0.0021   -0.0041    0.0020 C.ar      1 <0>        -0.0197
      3 C3          1.2054   -0.6965   -0.0127 C.ar      1 <0>        -0.1587
      4 C4          2.3942   -0.0238   -0.0204 C.ar      1 <0>        -0.0039
      5 C5          2.3996    1.3750   -0.0134 C.ar      1 <0>        -0.1483
      6 C6          3.6556    2.1274   -0.0219 C.2       1 <0>         0.0311
      7 C7          3.5991    3.4822   -0.0150 C.2       1 <0>        -0.2350
      8 C8          2.3512    4.1414    0.0005 C.2       1 <0>         0.5487
      9 O1          2.3231    5.3599    0.0069 O.2       1 <0>        -0.5501
     10 N1          1.1928    3.4590    0.0088 N.am      1 <0>        -0.6429
     11 H1          0.2355    4.0006    0.0213 H         1 <0>         0.4394
     12 C9          1.1817    2.0805    0.0019 C.ar      1 <0>         0.1997
     13 C10        -0.0166    1.3738    0.0096 C.ar      1 <0>        -0.1807
     14 C11         4.8732    4.2868   -0.0238 C.3       1 <0>         0.1747
     15 N2          5.2082    4.6558   -1.4015 N.pl3     1 <0>        -0.5578
     16 C12         4.7020    5.9084   -1.9680 C.3       1 <0>         0.0870
     17 C13         5.7028    7.0329   -1.6946 C.3       1 <0>        -0.1331
     18 C14         5.1742    8.3411   -2.2863 C.3       1 <0>         0.0575
     19 N3          6.1351    9.4208   -2.0238 N.3       1 <0>        -0.5344
     20 C15         6.2258    9.7070   -0.5847 C.3       1 <0>         0.0131
     21 C16         7.2788   10.7936   -0.3514 C.3       1 <0>         0.0613
     22 O2          6.9360   11.9541   -1.1136 O.3       1 <0>        -0.3843
     23 C17         6.8397   11.7116   -2.5198 C.3       1 <0>         0.0615
     24 C18         5.7823   10.6343   -2.7751 C.3       1 <0>         0.0167
     25 C19         5.9821    3.8429   -2.1476 C.2       1 <0>         0.5722
     26 S1          6.5736    2.3791   -1.4856 S.2       1 <0>        -0.6595
     27 N4          6.2902    4.1823   -3.4150 N.pl3     1 <0>        -0.6901
     28 C20         7.1314    3.2987   -4.2261 C.3       1 <0>         0.1864
     29 H2          7.8792    2.8473   -3.5575 H         1 <0>         0.1250
     30 C21         6.2602    2.2249   -4.8810 C.3       1 <0>        -0.1567
     31 C22         7.8229    4.1052   -5.2950 C.ar      1 <0>        -0.0926
     32 C23         7.1376    5.1065   -5.9572 C.ar      1 <0>        -0.1183
     33 C24         7.7733    5.8492   -6.9346 C.ar      1 <0>        -0.1134
     34 C25         9.0914    5.5846   -7.2561 C.ar      1 <0>        -0.1165
     35 C26         9.7751    4.5797   -6.5974 C.ar      1 <0>        -0.1125
     36 C27         9.1408    3.8399   -5.6170 C.ar      1 <0>        -0.1024
     37 C28         3.6945   -0.7854   -0.0359 C.3       1 <0>        -0.1320
     38 H3         -1.0882   -1.8473    0.0025 H         1 <0>         0.0717
     39 H4         -1.8846   -0.5012   -0.8809 H         1 <0>         0.0756
     40 H5         -1.8675   -0.5108    0.9153 H         1 <0>         0.0763
     41 H6          1.2015   -1.7764   -0.0185 H         1 <0>         0.1300
     42 H7          4.6060    1.6147   -0.0330 H         1 <0>         0.1702
     43 H8         -0.9580    1.9031    0.0169 H         1 <0>         0.1319
     44 H9          4.7355    5.1981    0.5767 H         1 <0>         0.0983
     45 H10         5.6894    3.6858    0.4036 H         1 <0>         0.1243
     46 H11         4.5685    5.7923   -3.0537 H         1 <0>         0.0704
     47 H12         3.7359    6.1566   -1.5043 H         1 <0>         0.1151
     48 H13         5.8362    7.1490   -0.6089 H         1 <0>         0.0762
     49 H14         6.6689    6.7847   -2.1583 H         1 <0>         0.0752
     50 H15         5.0408    8.2249   -3.3720 H         1 <0>         0.0767
     51 H16         4.2081    8.5893   -1.8226 H         1 <0>         0.0424
     52 H17         5.2490   10.0554   -0.2179 H         1 <0>         0.0451
     53 H18         6.5146    8.7922   -0.0464 H         1 <0>         0.0891
     54 H19         7.3097   11.0507    0.7177 H         1 <0>         0.1003
     55 H20         8.2648   10.4227   -0.6680 H         1 <0>         0.0606
     56 H21         6.5509   12.6406   -3.0331 H         1 <0>         0.1001
     57 H22         7.8135   11.3699   -2.9005 H         1 <0>         0.0607
     58 H23         5.7445   10.4022   -3.8497 H         1 <0>         0.0870
     59 H24         4.7984   10.9977   -2.4437 H         1 <0>         0.0444
     60 H25         5.9100    5.1228   -3.8404 H         1 <0>         0.4134
     61 H26         6.8918    1.5615   -5.4900 H         1 <0>         0.0734
     62 H27         5.5070    2.7051   -5.5230 H         1 <0>         0.0531
     63 H28         5.7555    1.6362   -4.1008 H         1 <0>         0.0785
     64 H29         6.1067    5.3108   -5.7087 H         1 <0>         0.1133
     65 H30         7.2392    6.6345   -7.4490 H         1 <0>         0.1232
     66 H31         9.5872    6.1631   -8.0215 H         1 <0>         0.1239
     67 H32        10.8049    4.3730   -6.8486 H         1 <0>         0.1262
     68 H33         9.6749    3.0549   -5.1025 H         1 <0>         0.1278
     69 H34         4.5350   -0.0758   -0.0402 H         1 <0>         0.0801
     70 H35         3.7406   -1.4139   -0.9375 H         1 <0>         0.0795
     71 H36         3.7570   -1.4224    0.8587 H         1 <0>         0.0790
@<TRIPOS>BOND
     1    1    2 1
     2    1   38 1
     3    1   39 1
     4    1   40 1
     5    2   13 ar
     6    2    3 ar
     7    3    4 ar
     8    3   41 1
     9    4    5 ar
    10    4   37 1
    11    5   12 ar
    12    5    6 1
    13    6    7 2
    14    6   42 1
    15    7    8 1
    16    7   14 1
    17    8    9 2
    18    8   10 am
    19   10   11 1
    20   10   12 1
    21   12   13 ar
    22   13   43 1
    23   14   15 1
    24   14   44 1
    25   14   45 1
    26   15   16 1
    27   15   25 1
    28   16   17 1
    29   16   46 1
    30   16   47 1
    31   17   18 1
    32   17   48 1
    33   17   49 1
    34   18   19 1
    35   18   50 1
    36   18   51 1
    37   19   24 1
    38   19   20 1
    39   20   21 1
    40   20   52 1
    41   20   53 1
    42   21   22 1
    43   21   54 1
    44   21   55 1
    45   22   23 1
    46   23   24 1
    47   23   56 1
    48   23   57 1
    49   24   58 1
    50   24   59 1
    51   25   26 2
    52   25   27 1
    53   27   28 1
    54   27   60 1
    55   28   29 1
    56   28   30 1
    57   28   31 1
    58   30   61 1
    59   30   62 1
    60   30   63 1
    61   31   36 ar
    62   31   32 ar
    63   32   33 ar
    64   32   64 1
    65   33   34 ar
    66   33   65 1
    67   34   35 ar
    68   34   66 1
    69   35   36 ar
    70   35   67 1
    71   36   68 1
    72   37   69 1
    73   37   70 1
    74   37   71 1
