@<TRIPOS>MOLECULE
ZINC13395206
   55    58     0     0     0
SMALL
USER_CHARGES

@<TRIPOS>ATOM
      1 C1          0.2044   -0.9605    1.1258 C.3       1 <0>        -0.1480
      2 C2          0.0051    0.0406   -0.0140 C.3       1 <0>        -0.0825
      3 C3          0.7097   -0.4579   -1.2493 C.ar      1 <0>        -0.1034
      4 C4          2.0291   -0.1123   -1.4778 C.ar      1 <0>        -0.0872
      5 C5          2.6777   -0.5669   -2.6090 C.ar      1 <0>        -0.1301
      6 C6          2.0034   -1.3729   -3.5178 C.ar      1 <0>         0.1576
      7 C7          0.6780   -1.7186   -3.2849 C.ar      1 <0>        -0.1483
      8 C8          0.0372   -1.2647   -2.1490 C.ar      1 <0>        -0.0921
      9 N1          2.6563   -1.8343   -4.6636 N.pl3     1 <0>        -0.6084
     10 C9          4.0416   -1.9537   -4.6738 C.2       1 <0>         0.3237
     11 N2          4.9020   -1.7861   -3.6886 N.2       1 <0>        -0.3503
     12 N3          6.2477   -1.9561   -3.9183 N.2       1 <0>        -0.2879
     13 C10         6.6711   -2.2862   -5.1236 C.2       1 <0>         0.0423
     14 S1          5.1307   -2.3828   -6.0230 S.3       1 <0>         0.0086
     15 S2          8.3154   -2.5642   -5.6923 S.3       1 <0>         0.1371
     16 C11         9.3406   -2.2925   -4.2206 C.3       1 <0>        -0.1514
     17 C12        10.7908   -2.5014   -4.5730 C.2       1 <0>         0.5350
     18 O1         11.1022   -2.8037   -5.7055 O.2       1 <0>        -0.5333
     19 N4         11.7418   -2.3522   -3.6297 N.am      1 <0>        -0.6780
     20 C13        13.1516   -2.5552   -3.9723 C.3       1 <0>         0.0859
     21 H1         13.2347   -3.3513   -4.7122 H         1 <0>         0.0858
     22 C14        13.9311   -2.9445   -2.7146 C.3       1 <0>        -0.0402
     23 C15        13.4455   -4.2811   -2.2162 C.2       1 <0>        -0.1457
     24 C16        12.5102   -4.4911   -1.2765 C.2       1 <0>         0.0372
     25 N5         12.3326   -5.8346   -1.0869 N.pl3     1 <0>        -0.5982
     26 H2         11.7091   -6.2310   -0.4583 H         1 <0>         0.4115
     27 C17        13.1706   -6.5399   -1.9212 C.ar      1 <0>         0.0962
     28 C18        13.9000   -5.5978   -2.6698 C.ar      1 <0>        -0.0996
     29 C19        14.8340   -6.0300   -3.6128 C.ar      1 <0>        -0.0603
     30 C20        15.0328   -7.3681   -3.8069 C.ar      1 <0>        -0.1535
     31 C21        14.3130   -8.3013   -3.0740 C.ar      1 <0>        -0.1004
     32 C22        13.3928   -7.8966   -2.1315 C.ar      1 <0>        -0.1389
     33 C23        13.7192   -1.2801   -4.5405 C.2       1 <0>         0.4913
     34 O2         13.0745   -0.2468   -4.4826 O.co2     1 <0>        -0.6867
     35 O3         14.8230   -1.2816   -5.0582 O.co2     1 <0>        -0.6933
     36 H3         -0.2087   -1.9269    0.8369 H         1 <0>         0.0548
     37 H4          1.2691   -1.0678    1.3331 H         1 <0>         0.0566
     38 H5         -0.3053   -0.5999    2.0193 H         1 <0>         0.0566
     39 H6         -1.0596    0.1479   -0.2213 H         1 <0>         0.0701
     40 H7          0.4182    1.0070    0.2749 H         1 <0>         0.0713
     41 H8          2.5528    0.5143   -0.7710 H         1 <0>         0.1261
     42 H9          3.7079   -0.2960   -2.7872 H         1 <0>         0.1439
     43 H10         0.1509   -2.3450   -3.9893 H         1 <0>         0.1260
     44 H11        -0.9918   -1.5363   -1.9652 H         1 <0>         0.1258
     45 H12         2.1433   -2.0714   -5.4519 H         1 <0>         0.4287
     46 H13         9.1971   -1.2736   -3.8609 H         1 <0>         0.1265
     47 H14         9.0510   -2.9971   -3.4410 H         1 <0>         0.1198
     48 H15        11.4927   -2.1103   -2.7239 H         1 <0>         0.3913
     49 H16        14.9933   -3.0088   -2.9509 H         1 <0>         0.0908
     50 H17        13.7756   -2.1906   -1.9429 H         1 <0>         0.0704
     51 H18        11.9770   -3.7146   -0.7481 H         1 <0>         0.1658
     52 H19        15.3973   -5.3095   -4.1873 H         1 <0>         0.1265
     53 H20        15.7556   -7.7020   -4.5366 H         1 <0>         0.1200
     54 H21        14.4807   -9.3554   -3.2392 H         1 <0>         0.1202
     55 H22        12.8368   -8.6306   -1.5671 H         1 <0>         0.1142
@<TRIPOS>BOND
     1    1    2 1
     2    1   36 1
     3    1   37 1
     4    1   38 1
     5    2    3 1
     6    2   39 1
     7    2   40 1
     8    3    8 ar
     9    3    4 ar
    10    4    5 ar
    11    4   41 1
    12    5    6 ar
    13    5   42 1
    14    6    7 ar
    15    6    9 1
    16    7    8 ar
    17    7   43 1
    18    8   44 1
    19    9   10 1
    20    9   45 1
    21   10   14 1
    22   10   11 2
    23   11   12 1
    24   12   13 2
    25   13   14 1
    26   13   15 1
    27   15   16 1
    28   16   17 1
    29   16   46 1
    30   16   47 1
    31   17   18 2
    32   17   19 am
    33   19   20 1
    34   19   48 1
    35   20   21 1
    36   20   22 1
    37   20   33 1
    38   22   23 1
    39   22   49 1
    40   22   50 1
    41   23   28 1
    42   23   24 2
    43   24   25 1
    44   24   51 1
    45   25   26 1
    46   25   27 1
    47   27   32 ar
    48   27   28 ar
    49   28   29 ar
    50   29   30 ar
    51   29   52 1
    52   30   31 ar
    53   30   53 1
    54   31   32 ar
    55   31   54 1
    56   32   55 1
    57   33   34 2
    58   33   35 1
