@<TRIPOS>MOLECULE
ZINC02306016
   38    41     0     0     0
SMALL
USER_CHARGES
2-(4-bromophenyl)-N-(3,4-difluorophenyl)quinazolin-4-amine
@<TRIPOS>ATOM
      1 C1         -0.0378    1.1166   -0.0085 C.ar      1 <0>        -0.1244
      2 C2         -1.2433    1.7890    0.1715 C.ar      1 <0>        -0.0708
      3 C3         -1.2736    3.1393    0.3562 C.ar      1 <0>        -0.1055
      4 C4         -0.0740    3.8655    0.3536 C.ar      1 <0>         0.1929
      5 C5          1.1513    3.1794    0.1644 C.ar      1 <0>        -0.1897
      6 C6          1.1473    1.7924   -0.0165 C.ar      1 <0>        -0.0744
      7 C7          2.3513    3.9335    0.1659 C.ar      1 <0>         0.4712
      8 N1          2.2697    5.2437    0.3441 N.ar      1 <0>        -0.5721
      9 C8          1.0964    5.8484    0.5185 C.ar      1 <0>         0.4064
     10 N2         -0.0502    5.1939    0.5257 N.ar      1 <0>        -0.5291
     11 C9          1.0766    7.3182    0.7121 C.ar      1 <0>        -0.0338
     12 C10         2.2696    8.0394    0.7158 C.ar      1 <0>        -0.0647
     13 C11         2.2452    9.4075    0.8925 C.ar      1 <0>        -0.1018
     14 C12         1.0396   10.0629    1.0752 C.ar      1 <0>        -0.0705
     15 C13        -0.1475    9.3509    1.0772 C.ar      1 <0>        -0.1012
     16 C14        -0.1347    7.9831    0.8969 C.ar      1 <0>        -0.0613
     17 Br1         1.0145   11.9374    1.3234 Br        1 <0>        -0.0445
     18 N3          3.5732    3.3189   -0.0142 N.pl3     1 <0>        -0.6362
     19 C15         4.7346    4.0907   -0.1262 C.ar      1 <0>         0.1752
     20 C16         4.6832    5.3408   -0.7295 C.ar      1 <0>        -0.0968
     21 C17         5.8293    6.1045   -0.8345 C.ar      1 <0>        -0.1032
     22 C18         7.0321    5.6206   -0.3493 C.ar      1 <0>         0.0546
     23 C19         7.0880    4.3706    0.2484 C.ar      1 <0>         0.0921
     24 C20         5.9411    3.6055    0.3604 C.ar      1 <0>        -0.1566
     25 F1          8.2626    3.9001    0.7218 F         1 <0>        -0.1234
     26 F2          8.1528    6.3673   -0.4578 F         1 <0>        -0.1264
     27 H1         -0.0411    0.0457   -0.1481 H         1 <0>         0.1340
     28 H2         -2.1684    1.2318    0.1690 H         1 <0>         0.1371
     29 H3         -2.2160    3.6472    0.4991 H         1 <0>         0.1436
     30 H4          2.0758    1.2602   -0.1612 H         1 <0>         0.1276
     31 H5          3.2110    7.5285    0.5774 H         1 <0>         0.1452
     32 H6          3.1686    9.9677    0.8921 H         1 <0>         0.1390
     33 H7         -1.0854    9.8670    1.2205 H         1 <0>         0.1394
     34 H8         -1.0614    7.4284    0.8994 H         1 <0>         0.1473
     35 H9          3.6270    2.3516   -0.0631 H         1 <0>         0.4258
     36 H10         3.7463    5.7175   -1.1124 H         1 <0>         0.1535
     37 H11         5.7879    7.0783   -1.2997 H         1 <0>         0.1524
     38 H12         5.9841    2.6318    0.8255 H         1 <0>         0.1492
@<TRIPOS>BOND
     1    1    6 ar
     2    1    2 ar
     3    1   27 1
     4    2    3 ar
     5    2   28 1
     6    3    4 ar
     7    3   29 1
     8    4   10 ar
     9    4    5 ar
    10    5    6 ar
    11    5    7 ar
    12    6   30 1
    13    7    8 ar
    14    7   18 1
    15    8    9 ar
    16    9   10 ar
    17    9   11 1
    18   11   16 ar
    19   11   12 ar
    20   12   13 ar
    21   12   31 1
    22   13   14 ar
    23   13   32 1
    24   14   15 ar
    25   14   17 1
    26   15   16 ar
    27   15   33 1
    28   16   34 1
    29   18   19 1
    30   18   35 1
    31   19   24 ar
    32   19   20 ar
    33   20   21 ar
    34   20   36 1
    35   21   22 ar
    36   21   37 1
    37   22   23 ar
    38   22   26 1
    39   23   24 ar
    40   23   25 1
    41   24   38 1
