@<TRIPOS>MOLECULE
ZINC34112182
   50    53     0     0     0
SMALL
USER_CHARGES

@<TRIPOS>ATOM
      1 C1         -0.0178    1.4608    0.0101 C.3       1 <0>         0.0733
      2 N1          0.0021   -0.0041    0.0020 N.am      1 <0>        -0.5437
      3 C2          0.0054   -0.6522   -1.1504 C.2       1 <0>         0.5608
      4 O1         -0.0073   -0.0585   -2.2138 O.2       1 <0>        -0.4923
      5 C3          0.0257   -2.1217   -1.0919 C.2       1 <0>        -0.2349
      6 C4          0.0332   -3.0293   -2.1118 C.2       1 <0>         0.0921
      7 C5          0.0533   -4.4113   -1.8263 C.2       1 <0>        -0.0469
      8 C6          0.0683   -5.4341   -2.7583 C.2       1 <0>        -0.1233
      9 C7          0.0857   -6.6326   -2.0404 C.2       1 <0>        -0.2188
     10 C8          0.0808   -6.3075   -0.7133 C.2       1 <0>         0.1057
     11 O2          0.0671   -4.9672   -0.5964 O.3       1 <0>        -0.1461
     12 C9          0.0947   -7.2680    0.4071 C.ar      1 <0>        -0.0683
     13 C10         0.1205   -8.6431    0.1510 C.ar      1 <0>        -0.0852
     14 C11         0.1334   -9.5432    1.1963 C.ar      1 <0>        -0.1346
     15 C12         0.1210   -9.0944    2.5041 C.ar      1 <0>         0.0102
     16 C13         0.0952   -7.7215    2.7753 C.ar      1 <0>        -0.1283
     17 C14         0.0878   -6.8067    1.7223 C.ar      1 <0>        -0.0419
     18 C15         0.0814   -7.2435    4.1703 C.2       1 <0>         0.5141
     19 O3          0.0588   -6.0435    4.4053 O.co2     1 <0>        -0.6617
     20 O4          0.0926   -8.0470    5.0923 O.co2     1 <0>        -0.6597
     21 Cl1         0.1369  -10.2357    3.8121 Cl        1 <0>        -0.0376
     22 S1          0.0378   -2.3994    0.6734 S.3       1 <0>         0.0177
     23 C16         0.0227   -0.6914    1.1936 C.2       1 <0>         0.3874
     24 N2          0.0277   -0.2077    2.4191 N.2       1 <0>        -0.4626
     25 C17         0.0494   -1.0546    3.4855 C.ar      1 <0>         0.1198
     26 C18        -0.7889   -2.1768    3.5060 C.ar      1 <0>        -0.1617
     27 C19        -0.7667   -3.0250    4.5736 C.ar      1 <0>         0.0010
     28 C20         0.0940   -2.7742    5.6495 C.ar      1 <0>        -0.1049
     29 C21         0.9317   -1.6522    5.6295 C.ar      1 <0>        -0.0564
     30 C22         0.9141   -0.8069    4.5594 C.ar      1 <0>        -0.1184
     31 C23         0.1177   -3.6898    6.8017 C.2       1 <0>         0.4926
     32 O5         -0.6097   -4.6634    6.8193 O.2       1 <0>        -0.4486
     33 O6          0.9462   -3.4485    7.8373 O.3       1 <0>        -0.3635
     34 C24         0.9168   -4.3785    8.9219 C.3       1 <0>         0.0385
     35 H1          1.0048    1.8381    0.0023 H         1 <0>         0.0729
     36 H2         -0.5450    1.8219   -0.8730 H         1 <0>         0.0886
     37 H3         -0.5280    1.8123    0.9069 H         1 <0>         0.0932
     38 H4          0.0237   -2.6898   -3.1369 H         1 <0>         0.1782
     39 H5          0.0663   -5.3267   -3.8330 H         1 <0>         0.1615
     40 H6          0.0998   -7.6292   -2.4564 H         1 <0>         0.1585
     41 H7          0.1299   -9.0010   -0.8680 H         1 <0>         0.1293
     42 H8          0.1530  -10.6036    0.9921 H         1 <0>         0.1320
     43 H9          0.0724   -5.7461    1.9252 H         1 <0>         0.1405
     44 H10        -1.4530   -2.3700    2.6764 H         1 <0>         0.1330
     45 H11        -1.4132   -3.8899    4.5896 H         1 <0>         0.1518
     46 H12         1.5952   -1.4589    6.4594 H         1 <0>         0.1405
     47 H13         1.5637    0.0557    4.5418 H         1 <0>         0.1332
     48 H14         1.6289   -4.0677    9.6863 H         1 <0>         0.0939
     49 H15        -0.0856   -4.4069    9.3491 H         1 <0>         0.0550
     50 H16         1.1847   -5.3702    8.5574 H         1 <0>         0.0641
@<TRIPOS>BOND
     1    1    2 1
     2    1   35 1
     3    1   36 1
     4    1   37 1
     5    2   23 1
     6    2    3 am
     7    3    4 2
     8    3    5 1
     9    5    6 2
    10    5   22 1
    11    6    7 1
    12    6   38 1
    13    7   11 1
    14    7    8 2
    15    8    9 1
    16    8   39 1
    17    9   10 2
    18    9   40 1
    19   10   11 1
    20   10   12 1
    21   12   17 ar
    22   12   13 ar
    23   13   14 ar
    24   13   41 1
    25   14   15 ar
    26   14   42 1
    27   15   16 ar
    28   15   21 1
    29   16   17 ar
    30   16   18 1
    31   17   43 1
    32   18   19 2
    33   18   20 1
    34   22   23 1
    35   23   24 2
    36   24   25 1
    37   25   30 ar
    38   25   26 ar
    39   26   27 ar
    40   26   44 1
    41   27   28 ar
    42   27   45 1
    43   28   29 ar
    44   28   31 1
    45   29   30 ar
    46   29   46 1
    47   30   47 1
    48   31   32 2
    49   31   33 1
    50   33   34 1
    51   34   48 1
    52   34   49 1
    53   34   50 1
