@<TRIPOS>MOLECULE
ZINC14465730
   53    57     0     0     0
SMALL
USER_CHARGES
(3aR,4R,9bS)-4-(4-chlorophenyl)-N-methyl-N-phenyl-3a,4,5,9b-tetrahydro-3H-cyclopenta[c]quinoline-8-carboxamide
@<TRIPOS>ATOM
      1 C1          1.2505   -1.0198    0.1515 C.3       1 <0>         0.0473
      2 N1          2.5026   -0.2627    0.0792 N.am      1 <0>        -0.5506
      3 C2          3.7218   -0.9374   -0.0401 C.ar      1 <0>         0.1508
      4 C3          4.9171   -0.2357    0.0493 C.ar      1 <0>        -0.1618
      5 C4          6.1194   -0.9060   -0.0627 C.ar      1 <0>        -0.0975
      6 C5          6.1339   -2.2722   -0.2759 C.ar      1 <0>        -0.1457
      7 C6          4.9455   -2.9728   -0.3711 C.ar      1 <0>        -0.0973
      8 C7          3.7398   -2.3096   -0.2538 C.ar      1 <0>        -0.1608
      9 C8          2.4795    1.0840    0.1276 C.2       1 <0>         0.5658
     10 O1          3.5043    1.7162   -0.0428 O.2       1 <0>        -0.5143
     11 C9          1.2114    1.7910    0.3872 C.ar      1 <0>        -0.1900
     12 C10         0.0035    1.2469   -0.0603 C.ar      1 <0>        -0.0596
     13 C11        -1.1729    1.9170    0.1824 C.ar      1 <0>        -0.1930
     14 C12        -1.1618    3.1242    0.8771 C.ar      1 <0>         0.2476
     15 C13         0.0332    3.6738    1.3260 C.ar      1 <0>        -0.1472
     16 C14         1.2173    3.0025    1.0786 C.ar      1 <0>        -0.0103
     17 C15         0.0882    4.9703    2.0708 C.3       1 <0>        -0.0140
     18 H1          0.7349    4.8642    2.9418 H         1 <0>         0.0955
     19 C16         0.6008    6.0874    1.1929 C.2       1 <0>        -0.1530
     20 C17        -0.0202    7.2067    1.4745 C.2       1 <0>        -0.1698
     21 C18        -1.0293    6.9892    2.5854 C.3       1 <0>        -0.1000
     22 C19        -1.2998    5.4568    2.5316 C.3       1 <0>        -0.0953
     23 H2         -1.5968    5.0420    3.4948 H         1 <0>         0.0985
     24 C20        -2.3307    5.2148    1.4253 C.3       1 <0>         0.2044
     25 H3         -2.0480    5.7750    0.5340 H         1 <0>         0.0855
     26 N2         -2.3666    3.7824    1.1141 N.pl3     1 <0>        -0.7389
     27 C21        -3.6904    5.6632    1.8956 C.ar      1 <0>        -0.0893
     28 C22        -4.4416    4.8447    2.7183 C.ar      1 <0>        -0.0976
     29 C23        -5.6863    5.2578    3.1546 C.ar      1 <0>        -0.1067
     30 C24        -6.1852    6.4860    2.7586 C.ar      1 <0>        -0.0313
     31 C25        -5.4353    7.3024    1.9307 C.ar      1 <0>        -0.1061
     32 C26        -4.1884    6.8906    1.4997 C.ar      1 <0>        -0.0927
     33 Cl1        -7.7517    7.0024    3.3000 Cl        1 <0>        -0.0651
     34 H4          0.9043   -1.2466   -0.8569 H         1 <0>         0.0710
     35 H5          1.4188   -1.9492    0.6955 H         1 <0>         0.0790
     36 H6          0.4968   -0.4269    0.6696 H         1 <0>         0.1045
     37 H7          4.9064    0.8320    0.2110 H         1 <0>         0.1746
     38 H8          7.0493   -0.3617    0.0115 H         1 <0>         0.1244
     39 H9          7.0755   -2.7932   -0.3680 H         1 <0>         0.1209
     40 H10         4.9603   -4.0399   -0.5370 H         1 <0>         0.1245
     41 H11         2.8121   -2.8574   -0.3279 H         1 <0>         0.1246
     42 H12        -0.0052    0.3095   -0.5965 H         1 <0>         0.1440
     43 H13        -2.1088    1.5038   -0.1637 H         1 <0>         0.1296
     44 H14         2.1523    3.4190    1.4234 H         1 <0>         0.1314
     45 H15         1.3689    5.9794    0.4414 H         1 <0>         0.1291
     46 H16         0.1616    8.1517    0.9843 H         1 <0>         0.1289
     47 H17        -0.6061    7.2711    3.5495 H         1 <0>         0.0829
     48 H18        -1.9442    7.5480    2.3881 H         1 <0>         0.0767
     49 H19        -3.2097    3.3043    1.0738 H         1 <0>         0.4053
     50 H20        -4.0539    3.8840    3.0237 H         1 <0>         0.1329
     51 H21        -6.2712    4.6202    3.8008 H         1 <0>         0.1358
     52 H22        -5.8241    8.2614    1.6216 H         1 <0>         0.1371
     53 H23        -3.6031    7.5276    0.8531 H         1 <0>         0.1353
@<TRIPOS>BOND
     1    1    2 1
     2    1   34 1
     3    1   35 1
     4    1   36 1
     5    2    3 1
     6    2    9 am
     7    3    8 ar
     8    3    4 ar
     9    4    5 ar
    10    4   37 1
    11    5    6 ar
    12    5   38 1
    13    6    7 ar
    14    6   39 1
    15    7    8 ar
    16    7   40 1
    17    8   41 1
    18    9   10 2
    19    9   11 1
    20   11   16 ar
    21   11   12 ar
    22   12   13 ar
    23   12   42 1
    24   13   14 ar
    25   13   43 1
    26   14   26 1
    27   14   15 ar
    28   15   16 ar
    29   15   17 1
    30   16   44 1
    31   17   18 1
    32   17   22 1
    33   17   19 1
    34   19   20 2
    35   19   45 1
    36   20   21 1
    37   20   46 1
    38   21   22 1
    39   21   47 1
    40   21   48 1
    41   22   23 1
    42   22   24 1
    43   24   25 1
    44   24   26 1
    45   24   27 1
    46   26   49 1
    47   27   32 ar
    48   27   28 ar
    49   28   29 ar
    50   28   50 1
    51   29   30 ar
    52   29   51 1
    53   30   31 ar
    54   30   33 1
    55   31   32 ar
    56   31   52 1
    57   32   53 1
