@<TRIPOS>MOLECULE
ZINC49517265
   28    29     0     0     0
SMALL
USER_CHARGES

@<TRIPOS>ATOM
      1 C1         -0.0187    1.5258    0.0104 C.3       1 <0>        -0.1406
      2 C2          0.0021   -0.0041    0.0020 C.3       1 <0>        -0.1167
      3 S1          0.8511   -0.5891   -1.4904 S.3       1 <0>         0.0526
      4 C3          0.7923   -2.3448   -1.3538 C.2       1 <0>         0.0571
      5 N1          0.2585   -3.0921   -0.4068 N.2       1 <0>        -0.3025
      6 N2          0.3250   -4.4632   -0.4979 N.2       1 <0>        -0.3001
      7 C4          0.9222   -5.0241   -1.5319 C.2       1 <0>         0.0497
      8 S2          1.4327   -3.5886   -2.4645 S.3       1 <0>         0.0648
      9 S3          1.1496   -6.7325   -1.8984 S.3       1 <0>         0.0662
     10 C5          0.3618   -7.5885   -0.5066 C.3       1 <0>        -0.0731
     11 C6          0.4865   -9.0782   -0.6976 C.ar      1 <0>        -0.0910
     12 C7         -0.4930   -9.7708   -1.3851 C.ar      1 <0>        -0.0518
     13 C8         -0.3800  -11.1367   -1.5615 C.ar      1 <0>        -0.1450
     14 C9          0.7148  -11.8123   -1.0495 C.ar      1 <0>         0.1409
     15 C10         1.6957  -11.1177   -0.3608 C.ar      1 <0>        -0.1334
     16 C11         1.5827   -9.7499   -0.1903 C.ar      1 <0>        -0.0402
     17 Br1         3.1918  -12.0381    0.3395 Br        1 <0>        -0.0185
     18 F1          0.8260  -13.1477   -1.2210 F         1 <0>        -0.1186
     19 H1          1.0039    1.9031    0.0027 H         1 <0>         0.0698
     20 H2         -0.5459    1.8868   -0.8726 H         1 <0>         0.0698
     21 H3         -0.5289    1.8773    0.9072 H         1 <0>         0.0851
     22 H4          0.5293   -0.3651    0.8851 H         1 <0>         0.0994
     23 H5         -1.0205   -0.3814    0.0098 H         1 <0>         0.0994
     24 H6          0.8523   -7.2990    0.4227 H         1 <0>         0.1139
     25 H7         -0.6924   -7.3150   -0.4616 H         1 <0>         0.1152
     26 H8         -1.3471   -9.2440   -1.7842 H         1 <0>         0.1470
     27 H9         -1.1455  -11.6772   -2.0983 H         1 <0>         0.1520
     28 H10         2.3493   -9.2072    0.3427 H         1 <0>         0.1485
@<TRIPOS>BOND
     1    1    2 1
     2    1   19 1
     3    1   20 1
     4    1   21 1
     5    2    3 1
     6    2   22 1
     7    2   23 1
     8    3    4 1
     9    4    8 1
    10    4    5 2
    11    5    6 1
    12    6    7 2
    13    7    8 1
    14    7    9 1
    15    9   10 1
    16   10   11 1
    17   10   24 1
    18   10   25 1
    19   11   16 ar
    20   11   12 ar
    21   12   13 ar
    22   12   26 1
    23   13   14 ar
    24   13   27 1
    25   14   15 ar
    26   14   18 1
    27   15   16 ar
    28   15   17 1
    29   16   28 1
