@<TRIPOS>MOLECULE
ZINC24772430
   57    59     0     0     0
SMALL
USER_CHARGES

@<TRIPOS>ATOM
      1 C1         -1.6116    0.9361   -0.4658 C.3       1 <0>         0.0786
      2 N1         -0.8063   -0.2557   -0.1881 N.am      1 <0>        -0.6007
      3 C2         -0.7906   -0.8316    1.1589 C.3       1 <0>         0.1033
      4 C3         -1.8902   -1.8549    1.2806 C.2       1 <0>         0.4951
      5 O1         -2.6156   -2.0809    0.3352 O.2       1 <0>        -0.4985
      6 N2         -2.0675   -2.5189    2.4399 N.am      1 <0>        -0.6744
      7 C4         -3.0282   -3.5326    2.5257 C.ar      1 <0>         0.1761
      8 C5         -2.7861   -4.6563    3.3056 C.ar      1 <0>        -0.1544
      9 C6         -3.7356   -5.6556    3.3895 C.ar      1 <0>        -0.0703
     10 C7         -4.9273   -5.5396    2.6979 C.ar      1 <0>        -0.1688
     11 C8         -5.1727   -4.4209    1.9193 C.ar      1 <0>         0.1177
     12 C9         -4.2272   -3.4143    1.8364 C.ar      1 <0>        -0.1578
     13 F1         -6.3378   -4.3103    1.2443 F         1 <0>        -0.1363
     14 C10        -0.0799   -0.8225   -1.1718 C.2       1 <0>         0.5714
     15 O2          0.5067   -1.8681   -0.9692 O.2       1 <0>        -0.5057
     16 C11         0.0035   -0.1741   -2.4945 C.ar      1 <0>        -0.1596
     17 C12         0.1990    1.2060   -2.5893 C.ar      1 <0>        -0.0482
     18 C13         0.2765    1.8053   -3.8276 C.ar      1 <0>        -0.1613
     19 C14         0.1614    1.0456   -4.9804 C.ar      1 <0>        -0.0527
     20 C15        -0.0321   -0.3191   -4.9011 C.ar      1 <0>        -0.2177
     21 C16        -0.1072   -0.9398   -3.6629 C.ar      1 <0>         0.1789
     22 O3         -0.2920   -2.2814   -3.5834 O.3       1 <0>        -0.2674
     23 C17        -0.3959   -2.9961   -4.8164 C.3       1 <0>         0.0407
     24 C18        -0.5971   -4.4623   -4.5318 C.2       1 <0>         0.5112
     25 O4         -0.6466   -4.8563   -3.3858 O.2       1 <0>        -0.4745
     26 N3         -0.7219   -5.3356   -5.5507 N.am      1 <0>        -0.6713
     27 C19        -1.0347   -6.6744   -5.2903 C.ar      1 <0>         0.1492
     28 C20        -0.5466   -7.6769   -6.1184 C.ar      1 <0>        -0.1128
     29 C21        -0.8571   -8.9971   -5.8587 C.ar      1 <0>        -0.0978
     30 C22        -1.6536   -9.3216   -4.7756 C.ar      1 <0>        -0.0875
     31 C23        -2.1415   -8.3260   -3.9496 C.ar      1 <0>        -0.1606
     32 C24        -1.8290   -7.0039   -4.2001 C.ar      1 <0>        -0.0744
     33 C25        -3.0094   -8.6840   -2.7709 C.3       1 <0>         0.5083
     34 F2         -3.1788  -10.0718   -2.7209 F         1 <0>        -0.1762
     35 F3         -2.3978   -8.2460   -1.5913 F         1 <0>        -0.1713
     36 F4         -4.2575   -8.0665   -2.9061 F         1 <0>        -0.1752
     37 H1         -1.0317    1.8290   -0.2321 H         1 <0>         0.0623
     38 H2         -1.8898    0.9492   -1.5196 H         1 <0>         0.0793
     39 H3         -2.5124    0.9170    0.1476 H         1 <0>         0.0715
     40 H4          0.1723   -1.3099    1.3383 H         1 <0>         0.1192
     41 H5         -0.9464   -0.0417    1.8936 H         1 <0>         0.1152
     42 H6         -1.5291   -2.2941    3.2148 H         1 <0>         0.4143
     43 H7         -1.8555   -4.7487    3.8458 H         1 <0>         0.1336
     44 H8         -3.5470   -6.5291    3.9959 H         1 <0>         0.1383
     45 H9         -5.6678   -6.3228    2.7648 H         1 <0>         0.1369
     46 H10        -4.4198   -2.5398    1.2325 H         1 <0>         0.1477
     47 H11         0.2890    1.8022   -1.6933 H         1 <0>         0.1389
     48 H12         0.4273    2.8723   -3.8998 H         1 <0>         0.1336
     49 H13         0.2230    1.5237   -5.9468 H         1 <0>         0.1328
     50 H14        -0.1209   -0.9046   -5.8042 H         1 <0>         0.1352
     51 H15        -1.2444   -2.6168   -5.3859 H         1 <0>         0.1011
     52 H16         0.5189   -2.8602   -5.3934 H         1 <0>         0.1008
     53 H17        -0.5950   -5.0361   -6.4645 H         1 <0>         0.4159
     54 H18         0.0749   -7.4241   -6.9647 H         1 <0>         0.1380
     55 H19        -0.4778   -9.7771   -6.5023 H         1 <0>         0.1422
     56 H20        -1.8953  -10.3549   -4.5749 H         1 <0>         0.1420
     57 H21        -2.2061   -6.2271   -3.5515 H         1 <0>         0.1464
@<TRIPOS>BOND
     1    1    2 1
     2    1   37 1
     3    1   38 1
     4    1   39 1
     5    2    3 1
     6    2   14 am
     7    3    4 1
     8    3   40 1
     9    3   41 1
    10    4    5 2
    11    4    6 am
    12    6    7 1
    13    6   42 1
    14    7   12 ar
    15    7    8 ar
    16    8    9 ar
    17    8   43 1
    18    9   10 ar
    19    9   44 1
    20   10   11 ar
    21   10   45 1
    22   11   12 ar
    23   11   13 1
    24   12   46 1
    25   14   15 2
    26   14   16 1
    27   16   21 ar
    28   16   17 ar
    29   17   18 ar
    30   17   47 1
    31   18   19 ar
    32   18   48 1
    33   19   20 ar
    34   19   49 1
    35   20   21 ar
    36   20   50 1
    37   21   22 1
    38   22   23 1
    39   23   24 1
    40   23   51 1
    41   23   52 1
    42   24   25 2
    43   24   26 am
    44   26   27 1
    45   26   53 1
    46   27   32 ar
    47   27   28 ar
    48   28   29 ar
    49   28   54 1
    50   29   30 ar
    51   29   55 1
    52   30   31 ar
    53   30   56 1
    54   31   32 ar
    55   31   33 1
    56   32   57 1
    57   33   34 1
    58   33   35 1
    59   33   36 1
