@<TRIPOS>MOLECULE
ZINC03764653
   57    60     0     0     0
SMALL
USER_CHARGES
methyl 2-[5-amino-4-cyano-2-[(3,4-dimethylphenyl)carbamoyl]-3-(2-fluorophenyl)-7-oxo-9-thia-6-azabicyclo[4.3.0]nona-1,4-dien-8-ylidene]acetate
@<TRIPOS>ATOM
      1 C1          0.6137   -6.3941    0.3091 C.3       1 <0>        -0.1170
      2 C2          0.7435   -4.8955    0.2179 C.ar      1 <0>        -0.0990
      3 C3          1.8320   -4.2611    0.7885 C.ar      1 <0>        -0.0977
      4 C4          1.9568   -2.8887    0.7018 C.ar      1 <0>        -0.1440
      5 C5          0.9819   -2.1439    0.0501 C.ar      1 <0>         0.1392
      6 C6         -0.1099   -2.7840   -0.5217 C.ar      1 <0>        -0.1122
      7 C7         -0.2258   -4.1578   -0.4363 C.ar      1 <0>        -0.0692
      8 C8         -1.4102   -4.8532   -1.0565 C.3       1 <0>        -0.1183
      9 N1          1.1025   -0.7535   -0.0349 N.am      1 <0>        -0.6615
     10 C9          0.0016    0.0226    0.0125 C.2       1 <0>         0.5733
     11 O1         -1.1035   -0.4894    0.0536 O.2       1 <0>        -0.5055
     12 C10         0.1284    1.4249    0.0144 C.2       1 <0>        -0.1490
     13 C11        -0.9683    2.2214    0.0560 C.2       1 <0>         0.1266
     14 N2         -0.9279    3.6017    0.0666 N.am      1 <0>        -0.5027
     15 C12        -2.1012    4.2643    0.1163 C.2       1 <0>         0.5519
     16 O2         -2.1336    5.4787    0.1240 O.2       1 <0>        -0.4450
     17 C13        -3.3499    3.4680    0.1617 C.2       1 <0>        -0.1624
     18 C14        -4.6405    3.8888    0.2153 C.2       1 <0>        -0.0263
     19 C15        -5.7278    2.9108    0.2533 C.2       1 <0>         0.4860
     20 O3         -5.4764    1.7211    0.2371 O.2       1 <0>        -0.4736
     21 O4         -7.0095    3.3288    0.3065 O.3       1 <0>        -0.3385
     22 C16        -8.0202    2.3192    0.3414 C.3       1 <0>         0.0325
     23 S1         -2.6995    1.8058    0.1277 S.3       1 <0>         0.2210
     24 C17         0.3135    4.2478    0.0212 C.2       1 <0>         0.4621
     25 C18         1.4960    3.5964   -0.0288 C.2       1 <0>        -0.1808
     26 C19         1.4936    2.0811   -0.0363 C.3       1 <0>         0.0716
     27 H1          2.0703    1.7350    0.8214 H         1 <0>         0.1082
     28 C20         2.1927    1.6186   -1.2887 C.ar      1 <0>        -0.1318
     29 C21         1.6306    1.8681   -2.5265 C.ar      1 <0>        -0.0706
     30 C22         2.2745    1.4491   -3.6756 C.ar      1 <0>        -0.1198
     31 C23         3.4756    0.7698   -3.5878 C.ar      1 <0>        -0.0833
     32 C24         4.0366    0.5142   -2.3512 C.ar      1 <0>        -0.1430
     33 C25         3.3953    0.9386   -1.1995 C.ar      1 <0>         0.0912
     34 F1          3.9430    0.6897    0.0101 F         1 <0>        -0.1338
     35 C26         2.7284    4.3241   -0.0735 C.1       1 <0>         0.2750
     36 N3          3.7062    4.9015   -0.1089 N.1       1 <0>        -0.4136
     37 N4          0.3300    5.6215    0.0274 N.pl3     1 <0>        -0.8529
     38 H2          1.1021   -6.8540   -0.5500 H         1 <0>         0.0698
     39 H3          1.0866   -6.7446    1.2266 H         1 <0>         0.0649
     40 H4         -0.4414   -6.6677    0.3167 H         1 <0>         0.0704
     41 H5          2.5872   -4.8403    1.2991 H         1 <0>         0.1264
     42 H6          2.8092   -2.3943    1.1440 H         1 <0>         0.1243
     43 H7         -0.8673   -2.2083   -1.0329 H         1 <0>         0.1407
     44 H8         -1.1764   -5.1194   -2.0873 H         1 <0>         0.0710
     45 H9         -1.6384   -5.7565   -0.4907 H         1 <0>         0.0714
     46 H10        -2.2725   -4.1866   -1.0401 H         1 <0>         0.0683
     47 H11         1.9785   -0.3474   -0.1280 H         1 <0>         0.4082
     48 H12        -4.8637    4.9454    0.2297 H         1 <0>         0.1793
     49 H13        -9.0025    2.7897    0.3829 H         1 <0>         0.1090
     50 H14        -7.9499    1.7035   -0.5554 H         1 <0>         0.0667
     51 H15        -7.8791    1.6941    1.2232 H         1 <0>         0.0668
     52 H16         0.6903    2.3947   -2.5962 H         1 <0>         0.1286
     53 H17         1.8370    1.6487   -4.6427 H         1 <0>         0.1341
     54 H18         3.9758    0.4393   -4.4861 H         1 <0>         0.1374
     55 H19         4.9746   -0.0166   -2.2828 H         1 <0>         0.1413
     56 H20         1.0099    6.1007   -0.4717 H         1 <0>         0.4165
     57 H21        -0.3383    6.1123    0.5309 H         1 <0>         0.4178
@<TRIPOS>BOND
     1    1    2 1
     2    1   38 1
     3    1   39 1
     4    1   40 1
     5    2    7 ar
     6    2    3 ar
     7    3    4 ar
     8    3   41 1
     9    4    5 ar
    10    4   42 1
    11    5    6 ar
    12    5    9 1
    13    6    7 ar
    14    6   43 1
    15    7    8 1
    16    8   44 1
    17    8   45 1
    18    8   46 1
    19    9   10 am
    20    9   47 1
    21   10   11 2
    22   10   12 1
    23   12   26 1
    24   12   13 2
    25   13   23 1
    26   13   14 1
    27   14   15 am
    28   14   24 1
    29   15   16 2
    30   15   17 1
    31   17   18 2
    32   17   23 1
    33   18   19 1
    34   18   48 1
    35   19   20 2
    36   19   21 1
    37   21   22 1
    38   22   49 1
    39   22   50 1
    40   22   51 1
    41   24   25 2
    42   24   37 1
    43   25   26 1
    44   25   35 1
    45   26   27 1
    46   26   28 1
    47   28   33 ar
    48   28   29 ar
    49   29   30 ar
    50   29   52 1
    51   30   31 ar
    52   30   53 1
    53   31   32 ar
    54   31   54 1
    55   32   33 ar
    56   32   55 1
    57   33   34 1
    58   35   36 3
    59   37   56 1
    60   37   57 1
