@<TRIPOS>MOLECULE
ZINC41945541
   35    37     0     0     0
SMALL
USER_CHARGES

@<TRIPOS>ATOM
      1 C1          0.1235    1.6127   -0.0577 C.ar      1 <0>        -0.1201
      2 C2          1.3594    2.2314   -0.0971 C.ar      1 <0>        -0.1324
      3 C3          2.5081    1.4681   -0.0852 C.ar      1 <0>        -0.0810
      4 C4          2.4341    0.0818   -0.0364 C.ar      1 <0>        -0.0323
      5 C5          1.2036   -0.5345   -0.0024 C.ar      1 <0>        -0.0664
      6 C6          0.0479    0.2362   -0.0099 C.ar      1 <0>        -0.1338
      7 C7          1.0478   -2.0322    0.0349 C.3       1 <0>        -0.0774
      8 C8          2.3526   -2.6975    0.4680 C.3       1 <0>        -0.1166
      9 C9          3.4884   -2.1482   -0.4031 C.3       1 <0>        -0.1498
     10 C10         3.7279   -0.6895   -0.0191 C.3       1 <0>         0.0796
     11 C11         4.6896   -0.0689   -0.9994 C.2       1 <0>         0.4851
     12 O1          5.7593    0.3681   -0.6105 O.co2     1 <0>        -0.6660
     13 O2          4.3980   -0.0039   -2.1815 O.co2     1 <0>        -0.6744
     14 O3          4.2920   -0.6340    1.2927 O.3       1 <0>        -0.2919
     15 C12         5.4615   -1.2984    1.4902 C.ar      1 <0>         0.1609
     16 C13         6.1176   -1.8829    0.4169 C.ar      1 <0>        -0.1324
     17 C14         7.3059   -2.5578    0.6190 C.ar      1 <0>        -0.1260
     18 C15         7.8418   -2.6514    1.8922 C.ar      1 <0>         0.0382
     19 C16         7.1877   -2.0689    2.9645 C.ar      1 <0>        -0.1257
     20 C17         6.0026   -1.3877    2.7642 C.ar      1 <0>        -0.1444
     21 F1          9.0037   -3.3121    2.0885 F         1 <0>        -0.1532
     22 H1         -0.7794    2.2052   -0.0600 H         1 <0>         0.1173
     23 H2          1.4249    3.3087   -0.1373 H         1 <0>         0.1189
     24 H3          3.4731    1.9522   -0.1143 H         1 <0>         0.1234
     25 H4         -0.9178   -0.2463    0.0217 H         1 <0>         0.1171
     26 H5          0.2594   -2.2941    0.7405 H         1 <0>         0.0712
     27 H6          0.7742   -2.3899   -0.9578 H         1 <0>         0.0750
     28 H7          2.5505   -2.4701    1.5155 H         1 <0>         0.0675
     29 H8          2.2764   -3.7766    0.3342 H         1 <0>         0.0652
     30 H9          4.3959   -2.7269   -0.2308 H         1 <0>         0.0819
     31 H10         3.2074   -2.2097   -1.4544 H         1 <0>         0.0854
     32 H11         5.6995   -1.8107   -0.5763 H         1 <0>         0.1479
     33 H12         7.8170   -3.0130   -0.2165 H         1 <0>         0.1277
     34 H13         7.6066   -2.1429    3.9572 H         1 <0>         0.1307
     35 H14         5.4951   -0.9292    3.6000 H         1 <0>         0.1308
@<TRIPOS>BOND
     1    1    6 ar
     2    1    2 ar
     3    1   22 1
     4    2    3 ar
     5    2   23 1
     6    3    4 ar
     7    3   24 1
     8    4   10 1
     9    4    5 ar
    10    5    6 ar
    11    5    7 1
    12    6   25 1
    13    7    8 1
    14    7   26 1
    15    7   27 1
    16    8    9 1
    17    8   28 1
    18    8   29 1
    19    9   10 1
    20    9   30 1
    21    9   31 1
    22   10   11 1
    23   10   14 1
    24   11   12 2
    25   11   13 1
    26   14   15 1
    27   15   20 ar
    28   15   16 ar
    29   16   17 ar
    30   16   32 1
    31   17   18 ar
    32   17   33 1
    33   18   19 ar
    34   18   21 1
    35   19   20 ar
    36   19   34 1
    37   20   35 1
