@<TRIPOS>MOLECULE
ZINC14041412
   45    46     0     0     0
SMALL
USER_CHARGES
3-bromo-4-butoxy-N-[(4-chloro-2-nitro-phenyl)carbamothioyl]benzamide
@<TRIPOS>ATOM
      1 C1          4.6353   -3.5864    1.8835 C.3       1 <0>        -0.1536
      2 C2          3.2493   -2.9497    1.7628 C.3       1 <0>        -0.1210
      3 C3          3.3920   -1.5054    1.2784 C.3       1 <0>        -0.1207
      4 C4          2.0060   -0.8687    1.1577 C.3       1 <0>         0.0528
      5 O1          2.1392    0.4802    0.7053 O.3       1 <0>        -0.2927
      6 C5          0.9949    1.1920    0.5444 C.ar      1 <0>         0.1951
      7 C6         -0.2331    0.6011    0.8176 C.ar      1 <0>        -0.2093
      8 C7         -1.3968    1.3179    0.6508 C.ar      1 <0>        -0.0301
      9 C8         -1.3418    2.6455    0.2164 C.ar      1 <0>        -0.1760
     10 C9         -0.1053    3.2364   -0.0578 C.ar      1 <0>         0.0180
     11 C10         1.0542    2.5105    0.1062 C.ar      1 <0>        -0.1371
     12 Br1         2.7282    3.3082   -0.2643 Br        1 <0>        -0.0163
     13 C11        -2.5859    3.4189    0.0427 C.2       1 <0>         0.5422
     14 O2         -2.5365    4.5718   -0.3394 O.2       1 <0>        -0.3967
     15 N1         -3.7774    2.8473    0.3077 N.am      1 <0>        -0.6327
     16 C12        -4.9140    3.5540    0.1491 C.2       1 <0>         0.5158
     17 S1         -4.8444    5.1777   -0.3891 S.2       1 <0>        -0.4660
     18 N2         -6.1054    2.9823    0.4141 N.pl3     1 <0>        -0.6253
     19 C13        -7.2752    3.7488    0.3666 C.ar      1 <0>         0.2095
     20 C14        -7.3161    4.9945    0.9795 C.ar      1 <0>        -0.0650
     21 C15        -8.4715    5.7490    0.9308 C.ar      1 <0>        -0.0463
     22 C16        -9.5881    5.2652    0.2714 C.ar      1 <0>        -0.0318
     23 C17        -9.5502    4.0244   -0.3397 C.ar      1 <0>        -0.0435
     24 C18        -8.3953    3.2678   -0.2984 C.ar      1 <0>        -0.0395
     25 N3         -8.3535    1.9432   -0.9576 N.pl3     1 <0>         0.0353
     26 O3         -9.3582    1.4881   -1.4742 O.2       1 <0>        -0.1315
     27 O4         -7.3143    1.3083   -0.9833 O.3       1 <0>        -0.1767
     28 Cl1       -11.0390    6.2166    0.2115 Cl        1 <0>        -0.0280
     29 H1          4.5336   -4.6153    2.2286 H         1 <0>         0.0585
     30 H2          5.1257   -3.5764    0.9101 H         1 <0>         0.0570
     31 H3          5.2339   -3.0210    2.5977 H         1 <0>         0.0569
     32 H4          2.7589   -2.9596    2.7362 H         1 <0>         0.0653
     33 H5          2.6507   -3.5150    1.0486 H         1 <0>         0.0656
     34 H6          3.8824   -1.4955    0.3050 H         1 <0>         0.0774
     35 H7          3.9906   -0.9401    1.9926 H         1 <0>         0.0772
     36 H8          1.5156   -0.8786    2.1311 H         1 <0>         0.0690
     37 H9          1.4074   -1.4340    0.4435 H         1 <0>         0.0694
     38 H10        -0.2749   -0.4233    1.1571 H         1 <0>         0.1472
     39 H11        -2.3507    0.8565    0.8595 H         1 <0>         0.1332
     40 H12        -0.0589    4.2603   -0.3982 H         1 <0>         0.1581
     41 H13        -3.8168    1.9273    0.6127 H         1 <0>         0.4128
     42 H14        -6.1520    2.0396    0.6377 H         1 <0>         0.4207
     43 H15        -6.4448    5.3728    1.4936 H         1 <0>         0.1690
     44 H16        -8.5038    6.7177    1.4072 H         1 <0>         0.1631
     45 H17       -10.4230    3.6490   -0.8532 H         1 <0>         0.1708
@<TRIPOS>BOND
     1    1    2 1
     2    1   29 1
     3    1   30 1
     4    1   31 1
     5    2    3 1
     6    2   32 1
     7    2   33 1
     8    3    4 1
     9    3   34 1
    10    3   35 1
    11    4    5 1
    12    4   36 1
    13    4   37 1
    14    5    6 1
    15    6   11 ar
    16    6    7 ar
    17    7    8 ar
    18    7   38 1
    19    8    9 ar
    20    8   39 1
    21    9   10 ar
    22    9   13 1
    23   10   11 ar
    24   10   40 1
    25   11   12 1
    26   13   14 2
    27   13   15 am
    28   15   16 1
    29   15   41 1
    30   16   17 2
    31   16   18 1
    32   18   19 1
    33   18   42 1
    34   19   24 ar
    35   19   20 ar
    36   20   21 ar
    37   20   43 1
    38   21   22 ar
    39   21   44 1
    40   22   23 ar
    41   22   28 1
    42   23   24 ar
    43   23   45 1
    44   24   25 1
    45   25   26 2
    46   25   27 1
