@<TRIPOS>MOLECULE
ZINC16158344
   50    51     0     0     0
SMALL
USER_CHARGES
[[4-[2-(2-allylphenoxy)ethoxy]-3-iodo-5-methoxy-phenyl]methyleneamino]thiourea
@<TRIPOS>ATOM
      1 C1         -6.4462    1.3521    0.0021 C.3       1 <0>         0.0204
      2 O1         -5.3105    2.1144    0.4157 O.3       1 <0>        -0.2924
      3 C2         -5.5544    3.3174    1.0012 C.ar      1 <0>         0.1205
      4 C3         -6.8558    3.7513    1.1730 C.ar      1 <0>        -0.1492
      5 C4         -7.1029    4.9874    1.7753 C.ar      1 <0>        -0.0264
      6 C5         -6.0337    5.7793    2.2013 C.ar      1 <0>        -0.0688
      7 C6         -4.7379    5.3373    2.0318 C.ar      1 <0>        -0.0970
      8 C7         -4.4930    4.1118    1.4282 C.ar      1 <0>         0.1187
      9 O2         -3.2140    3.6832    1.2584 O.3       1 <0>        -0.3054
     10 C8         -2.5664    4.0422    0.0362 C.3       1 <0>         0.0689
     11 C9         -1.1453    3.4753    0.0264 C.3       1 <0>         0.0634
     12 O3         -1.2021    2.0475    0.0189 O.3       1 <0>        -0.2982
     13 C10        -0.0167    1.3829    0.0096 C.ar      1 <0>         0.1336
     14 C11         1.1767    2.0906    0.0021 C.ar      1 <0>        -0.2089
     15 C12         2.3801    1.4129   -0.0135 C.ar      1 <0>        -0.0832
     16 C13         2.3962    0.0301   -0.0207 C.ar      1 <0>        -0.1553
     17 C14         1.2085   -0.6774   -0.0131 C.ar      1 <0>        -0.0781
     18 C15         0.0021   -0.0041    0.0020 C.ar      1 <0>        -0.1081
     19 C16        -1.2923   -0.7759    0.0097 C.3       1 <0>        -0.0470
     20 C17        -1.8001   -0.9192   -1.4019 C.2       1 <0>        -0.1360
     21 C18        -2.0627   -2.1078   -1.8860 C.2       1 <0>        -0.2003
     22 I1         -3.1361    6.5224    2.6789 I         1 <0>        -0.0049
     23 C19        -8.4888    5.4548    1.9614 C.2       1 <0>         0.1520
     24 N1         -8.7166    6.6034    2.5211 N.2       1 <0>        -0.2781
     25 N2        -10.0336    7.0476    2.6979 N.pl3     1 <0>        -0.5372
     26 C20       -10.2701    8.2403    3.2792 C.2       1 <0>         0.6024
     27 S1        -11.8794    8.7831    3.4952 S.2       1 <0>        -0.6102
     28 N3         -9.2399    9.0058    3.6903 N.pl3     1 <0>        -0.7825
     29 H1         -6.1120    0.4174   -0.4481 H         1 <0>         0.1077
     30 H2         -7.0727    1.1350    0.8672 H         1 <0>         0.0600
     31 H3         -7.0202    1.9223   -0.7283 H         1 <0>         0.0587
     32 H4         -7.6794    3.1362    0.8419 H         1 <0>         0.1487
     33 H5         -6.2216    6.7354    2.6673 H         1 <0>         0.1455
     34 H6         -2.5249    5.1282   -0.0477 H         1 <0>         0.0765
     35 H7         -3.1262    3.6340   -0.8052 H         1 <0>         0.0710
     36 H8         -0.6132    3.8131    0.9157 H         1 <0>         0.0761
     37 H9         -0.6217    3.8228   -0.8642 H         1 <0>         0.0834
     38 H10         1.1647    3.1705    0.0076 H         1 <0>         0.1265
     39 H11         3.3093    1.9633   -0.0202 H         1 <0>         0.1240
     40 H12         3.3382   -0.4980   -0.0325 H         1 <0>         0.1236
     41 H13         1.2237   -1.7572   -0.0194 H         1 <0>         0.1276
     42 H14        -1.1234   -1.7642    0.4372 H         1 <0>         0.0735
     43 H15        -2.0300   -0.2421    0.6088 H         1 <0>         0.0884
     44 H16        -1.9475   -0.0420   -2.0144 H         1 <0>         0.1066
     45 H17        -1.9153   -2.9850   -1.2735 H         1 <0>         0.0955
     46 H18        -2.4267   -2.2105   -2.8976 H         1 <0>         0.0961
     47 H19        -9.3144    4.8415    1.6319 H         1 <0>         0.1358
     48 H20       -10.7751    6.4967    2.4020 H         1 <0>         0.4203
     49 H21        -8.3281    8.6982    3.5679 H         1 <0>         0.4082
     50 H22        -9.4101    9.8642    4.1087 H         1 <0>         0.4336
@<TRIPOS>BOND
     1    1    2 1
     2    1   29 1
     3    1   30 1
     4    1   31 1
     5    2    3 1
     6    3    8 ar
     7    3    4 ar
     8    4    5 ar
     9    4   32 1
    10    5    6 ar
    11    5   23 1
    12    6    7 ar
    13    6   33 1
    14    7    8 ar
    15    7   22 1
    16    8    9 1
    17    9   10 1
    18   10   11 1
    19   10   34 1
    20   10   35 1
    21   11   12 1
    22   11   36 1
    23   11   37 1
    24   12   13 1
    25   13   18 ar
    26   13   14 ar
    27   14   15 ar
    28   14   38 1
    29   15   16 ar
    30   15   39 1
    31   16   17 ar
    32   16   40 1
    33   17   18 ar
    34   17   41 1
    35   18   19 1
    36   19   20 1
    37   19   42 1
    38   19   43 1
    39   20   21 2
    40   20   44 1
    41   21   45 1
    42   21   46 1
    43   23   24 2
    44   23   47 1
    45   24   25 1
    46   25   26 1
    47   25   48 1
    48   26   27 2
    49   26   28 1
    50   28   49 1
    51   28   50 1
