@<TRIPOS>MOLECULE
ZINC02742757
   52    56     0     0     0
SMALL
USER_CHARGES
N-(3-carbamoyl-5,6,7,8-tetrahydro-4H-cyclohepta[d]thiophen-2-yl)-5-(2-thienyl)-7-(trifluoromethyl)pyrazolo[1,5-a]pyrimidine-2-carboxamide
@<TRIPOS>ATOM
      1 C1         -1.0816    1.9161    0.0167 C.2       1 <0>        -0.1720
      2 C2         -0.8667    3.2741    0.0279 C.2       1 <0>        -0.0713
      3 C3          0.4249    3.7374    0.0181 C.2       1 <0>        -0.1646
      4 S1          1.3605    2.2168    0.0010 S.3       1 <0>         0.0988
      5 C4         -0.0126    1.0758    0.0080 C.2       1 <0>        -0.1364
      6 C5          0.9127    5.1276    0.0209 C.2       1 <0>         0.2996
      7 C6          2.3050    5.3899    0.0095 C.2       1 <0>        -0.1320
      8 C7          2.7373    6.6686    0.0118 C.2       1 <0>         0.0969
      9 N1          1.8209    7.6865    0.0250 N.pl3     1 <0>        -0.2934
     10 C8          0.4783    7.4006    0.0358 C.2       1 <0>         0.2691
     11 N2          0.0505    6.1312    0.0285 N.2       1 <0>        -0.4215
     12 C9         -0.1979    8.6115    0.0474 C.2       1 <0>        -0.1724
     13 C10         0.7611    9.6309    0.0433 C.2       1 <0>         0.0773
     14 N3          1.9641    9.0792    0.0300 N.2       1 <0>        -0.2609
     15 C11         0.4777   11.0816    0.0524 C.2       1 <0>         0.6026
     16 O1         -0.6720   11.4762    0.0646 O.2       1 <0>        -0.4755
     17 N4          1.4940   11.9668    0.0473 N.am      1 <0>        -0.6179
     18 C12         1.2283   13.3266    0.0558 C.2       1 <0>         0.0732
     19 C13         2.1287   14.3806    0.0581 C.2       1 <0>        -0.2213
     20 C14         1.5886   15.7334    0.0594 C.2       1 <0>        -0.0617
     21 C15         0.2403   15.8078    0.0767 C.2       1 <0>        -0.2004
     22 S2         -0.3094   14.1230    0.0738 S.3       1 <0>         0.2213
     23 C16        -0.6077   17.0407    0.1077 C.3       1 <0>        -0.0399
     24 C17        -0.1211   18.0177   -0.9711 C.3       1 <0>        -0.1161
     25 C18         0.9497   18.9162   -0.3601 C.3       1 <0>        -0.1217
     26 C19         1.7488   18.1440    0.6877 C.3       1 <0>        -0.1254
     27 C20         2.4778   16.9704    0.0426 C.3       1 <0>        -0.0585
     28 C21         3.5753   14.1419    0.0553 C.2       1 <0>         0.5830
     29 O2          4.1743   14.0468   -1.0000 O.2       1 <0>        -0.5411
     30 N5          4.2417   14.0278    1.2211 N.am      1 <0>        -0.8703
     31 C22         4.2132    6.9732   -0.0006 C.3       1 <0>         0.5242
     32 F1          4.9343    5.7812   -0.1283 F         1 <0>        -0.1546
     33 F2          4.5068    7.8137   -1.0797 F         1 <0>        -0.1524
     34 F3          4.5685    7.6074    1.1947 F         1 <0>        -0.1549
     35 H1         -2.0870    1.5216    0.0180 H         1 <0>         0.1468
     36 H2         -1.6985    3.9630    0.0396 H         1 <0>         0.1494
     37 H3          0.0021   -0.0041    0.0020 H         1 <0>         0.1973
     38 H4          3.0134    4.5747   -0.0012 H         1 <0>         0.1857
     39 H5         -1.2697    8.7437    0.0576 H         1 <0>         0.1867
     40 H6          2.5344   11.6097    0.0364 H         1 <0>         0.4546
     41 H7         -1.6560   16.7697   -0.0865 H         1 <0>         0.0757
     42 H8         -0.5289   17.5152    1.0970 H         1 <0>         0.0909
     43 H9          0.2996   17.4518   -1.8154 H         1 <0>         0.0683
     44 H10        -0.9670   18.6265   -1.3230 H         1 <0>         0.0716
     45 H11         1.6318   19.2632   -1.1503 H         1 <0>         0.0644
     46 H12         0.4713   19.7836    0.1183 H         1 <0>         0.0654
     47 H13         2.4882   18.8134    1.1516 H         1 <0>         0.0662
     48 H14         1.0661   17.7604    1.4602 H         1 <0>         0.0748
     49 H15         3.4017   16.7654    0.6032 H         1 <0>         0.0688
     50 H16         2.7291   17.2272   -0.9970 H         1 <0>         0.0788
     51 H17         5.3270   13.8487    1.2190 H         1 <0>         0.4230
     52 H18         3.7003   14.1138    2.1748 H         1 <0>         0.4220
@<TRIPOS>BOND
     1    1    5 2
     2    1    2 1
     3    1   35 1
     4    2    3 2
     5    2   36 1
     6    3    4 1
     7    3    6 1
     8    4    5 1
     9    5   37 1
    10    6   11 2
    11    6    7 1
    12    7    8 2
    13    7   38 1
    14    8    9 1
    15    8   31 1
    16    9   14 1
    17    9   10 1
    18   10   11 1
    19   10   12 2
    20   12   13 1
    21   12   39 1
    22   13   14 2
    23   13   15 1
    24   15   16 2
    25   15   17 am
    26   17   18 1
    27   17   40 1
    28   18   22 1
    29   18   19 2
    30   19   20 1
    31   19   28 1
    32   20   27 1
    33   20   21 2
    34   21   22 1
    35   21   23 1
    36   23   24 1
    37   23   41 1
    38   23   42 1
    39   24   25 1
    40   24   43 1
    41   24   44 1
    42   25   26 1
    43   25   45 1
    44   25   46 1
    45   26   27 1
    46   26   47 1
    47   26   48 1
    48   27   49 1
    49   27   50 1
    50   28   29 2
    51   28   30 am
    52   30   51 1
    53   30   52 1
    54   31   32 1
    55   31   33 1
    56   31   34 1
