@<TRIPOS>MOLECULE
ZINC16911733
   46    48     0     0     0
SMALL
USER_CHARGES

@<TRIPOS>ATOM
      1 C1          1.5500    1.3251   -0.0391 C.3       1 <0>        -0.0965
      2 C2          1.2518   -0.1521   -0.0341 C.ar      1 <0>        -0.1476
      3 C3          0.6378   -0.7358   -1.1274 C.ar      1 <0>        -0.1089
      4 C4          0.3633   -2.0890   -1.1261 C.ar      1 <0>        -0.1514
      5 C5          0.7044   -2.8644   -0.0250 C.ar      1 <0>         0.1660
      6 C6          1.3209   -2.2752    1.0712 C.ar      1 <0>        -0.1149
      7 C7          1.5978   -0.9220    1.0611 C.ar      1 <0>        -0.1095
      8 C8          1.6927   -3.1123    2.2678 C.3       1 <0>        -0.0909
      9 N1          0.4274   -4.2347   -0.0202 N.2       1 <0>        -0.5788
     10 C9          0.3057   -4.9136   -1.2051 C.2       1 <0>         0.4527
     11 N2          0.5860   -4.4898   -2.4273 N.2       1 <0>        -0.7145
     12 C10         0.4244   -5.2461   -3.4905 C.2       1 <0>         0.5289
     13 O1          0.6869   -4.8440   -4.6128 O.2       1 <0>        -0.5261
     14 C11        -0.0934   -6.6135   -3.2515 C.2       1 <0>        -0.2041
     15 C12        -0.3594   -7.6093   -4.1349 C.2       1 <0>         0.0172
     16 C13        -0.2960   -7.3469   -5.5774 C.ar      1 <0>        -0.0998
     17 C14        -0.8383   -6.1683   -6.1038 C.ar      1 <0>        -0.0080
     18 C15        -0.7749   -5.9293   -7.4588 C.ar      1 <0>        -0.1755
     19 C16        -0.1772   -6.8501   -8.3045 C.ar      1 <0>        -0.0727
     20 C17         0.3618   -8.0177   -7.7996 C.ar      1 <0>        -0.2234
     21 C18         0.3143   -8.2739   -6.4386 C.ar      1 <0>         0.1599
     22 O2          0.8488   -9.4176   -5.9409 O.3       1 <0>        -0.3179
     23 C19         1.4526  -10.3125   -6.8771 C.3       1 <0>         0.0833
     24 C20         1.9953  -11.5361   -6.1360 C.3       1 <0>        -0.1818
     25 C21         2.6321  -12.4799   -7.1233 C.2       1 <0>         0.4999
     26 O3          2.6502  -12.1998   -8.3098 O.co2     1 <0>        -0.6985
     27 O4          3.1291  -13.5235   -6.7356 O.co2     1 <0>        -0.6994
     28 S1         -0.2620   -6.5859   -1.4713 S.3       1 <0>        -0.1459
     29 H1          2.5403    1.4944   -0.4617 H         1 <0>         0.0553
     30 H2          0.8043    1.8442   -0.6412 H         1 <0>         0.0541
     31 H3          1.5209    1.7050    0.9822 H         1 <0>         0.0531
     32 H4          0.3726   -0.1324   -1.9829 H         1 <0>         0.1040
     33 H5         -0.1165   -2.5441   -1.9800 H         1 <0>         0.1362
     34 H6          2.0814   -0.4640    1.9112 H         1 <0>         0.1067
     35 H7          2.7028   -3.5014    2.1394 H         1 <0>         0.0528
     36 H8          1.6515   -2.4985    3.1676 H         1 <0>         0.0448
     37 H9          0.9928   -3.9426    2.3620 H         1 <0>         0.0730
     38 H10        -0.6177   -8.5947   -3.7761 H         1 <0>         0.1312
     39 H11        -1.3057   -5.4481   -5.4487 H         1 <0>         0.1234
     40 H12        -1.1934   -5.0200   -7.8642 H         1 <0>         0.1157
     41 H13        -0.1327   -6.6539   -9.3656 H         1 <0>         0.1166
     42 H14         0.8254   -8.7298   -8.4662 H         1 <0>         0.1310
     43 H15         0.7087  -10.6306   -7.6075 H         1 <0>         0.0615
     44 H16         2.2706   -9.8054   -7.3889 H         1 <0>         0.0615
     45 H17         2.7392  -11.2181   -5.4056 H         1 <0>         0.0692
     46 H18         1.1773  -12.0432   -5.6242 H         1 <0>         0.0683
@<TRIPOS>BOND
     1    1    2 1
     2    1   29 1
     3    1   30 1
     4    1   31 1
     5    2    7 ar
     6    2    3 ar
     7    3    4 ar
     8    3   32 1
     9    4    5 ar
    10    4   33 1
    11    5    6 ar
    12    5    9 1
    13    6    7 ar
    14    6    8 1
    15    7   34 1
    16    8   35 1
    17    8   36 1
    18    8   37 1
    19    9   10 1
    20   10   28 1
    21   10   11 2
    22   11   12 1
    23   12   13 2
    24   12   14 1
    25   14   15 2
    26   14   28 1
    27   15   16 1
    28   15   38 1
    29   16   21 ar
    30   16   17 ar
    31   17   18 ar
    32   17   39 1
    33   18   19 ar
    34   18   40 1
    35   19   20 ar
    36   19   41 1
    37   20   21 ar
    38   20   42 1
    39   21   22 1
    40   22   23 1
    41   23   24 1
    42   23   43 1
    43   23   44 1
    44   24   25 1
    45   24   45 1
    46   24   46 1
    47   25   26 2
    48   25   27 1
