@<TRIPOS>MOLECULE
ZINC12425903
   56    58     0     0     0
SMALL
USER_CHARGES
[2-[[(1R)-1-(4-ethylphenyl)ethyl]amino]-2-oxo-ethyl] 2-[(2S)-3-oxo-6-(trifluoromethyl)-4H-1,4-benzothiazin-2-yl]acetate
@<TRIPOS>ATOM
      1 C1         11.6813    5.7303  -10.0980 C.3       1 <0>        -0.1476
      2 C2         11.1663    4.3583  -10.5378 C.3       1 <0>        -0.0884
      3 C3          9.8032    4.1186   -9.9414 C.ar      1 <0>        -0.0771
      4 C4          8.6694    4.5079  -10.6297 C.ar      1 <0>        -0.1127
      5 C5          7.4191    4.2871  -10.0831 C.ar      1 <0>        -0.1021
      6 C6          7.3026    3.6767   -8.8483 C.ar      1 <0>        -0.1006
      7 C7          8.4366    3.2921   -8.1576 C.ar      1 <0>        -0.1114
      8 C8          9.6868    3.5090   -8.7062 C.ar      1 <0>        -0.1132
      9 C9          5.9395    3.4360   -8.2524 C.3       1 <0>         0.1874
     10 H1          5.2135    4.0957   -8.7276 H         1 <0>         0.0992
     11 C10         5.5322    1.9793   -8.4826 C.3       1 <0>        -0.1595
     12 N1          5.9801    3.7102   -6.8138 N.am      1 <0>        -0.7212
     13 C11         4.8528    4.0575   -6.1619 C.2       1 <0>         0.5172
     14 O1          3.8047    4.1431   -6.7662 O.2       1 <0>        -0.5121
     15 C12         4.8946    4.3395   -4.6821 C.3       1 <0>         0.0489
     16 O2          3.5639    4.6896   -4.2184 O.3       1 <0>        -0.3276
     17 C13         3.4281    4.9719   -2.9132 C.2       1 <0>         0.4721
     18 O3          4.3893    4.9281   -2.1824 O.2       1 <0>        -0.4862
     19 C14         2.0768    5.3437   -2.3593 C.3       1 <0>        -0.1053
     20 C15         2.1978    5.6144   -0.8583 C.3       1 <0>        -0.0921
     21 H2          2.9559    6.3779   -0.6837 H         1 <0>         0.1668
     22 C16         0.8702    6.0803   -0.3191 C.2       1 <0>         0.5323
     23 O4          0.6932    7.2711   -0.1714 O.2       1 <0>        -0.4938
     24 N2         -0.1161    5.2497    0.0030 N.am      1 <0>        -0.6510
     25 C17        -0.0605    3.8592    0.0134 C.ar      1 <0>         0.1582
     26 C18        -1.2473    3.1326    0.0262 C.ar      1 <0>        -0.0888
     27 C19        -1.2188    1.7523    0.0173 C.ar      1 <0>        -0.1462
     28 C20        -0.0126    1.0758    0.0080 C.ar      1 <0>        -0.0772
     29 C21         1.1747    1.7847    0.0004 C.ar      1 <0>        -0.0557
     30 C22         1.1515    3.1696    0.0042 C.ar      1 <0>        -0.1191
     31 S1          2.6636    4.0818    0.0039 S.3       1 <0>        -0.0259
     32 C23        -2.5112    0.9772    0.0232 C.3       1 <0>         0.5100
     33 F1         -2.2328   -0.3938    0.0177 F         1 <0>        -0.1724
     34 F2         -3.2432    1.2998    1.1710 F         1 <0>        -0.1729
     35 F3         -3.2574    1.3061   -1.1135 F         1 <0>        -0.1728
     36 H3         10.9936    6.5035  -10.4407 H         1 <0>         0.0559
     37 H4         11.7499    5.7612   -9.0106 H         1 <0>         0.0557
     38 H5         12.6671    5.9037  -10.5294 H         1 <0>         0.0596
     39 H6         11.8539    3.5852  -10.1951 H         1 <0>         0.0729
     40 H7         11.0976    4.3275  -11.6252 H         1 <0>         0.0731
     41 H8          8.7604    4.9842  -11.5948 H         1 <0>         0.1246
     42 H9          6.5333    4.5913  -10.6209 H         1 <0>         0.1255
     43 H10         8.3457    2.8192   -7.1909 H         1 <0>         0.1202
     44 H11        10.5726    3.2045   -8.1686 H         1 <0>         0.1238
     45 H12         6.2582    1.3196   -8.0074 H         1 <0>         0.0605
     46 H13         4.5463    1.8052   -8.0516 H         1 <0>         0.0663
     47 H14         5.5020    1.7753   -9.5530 H         1 <0>         0.0709
     48 H15         6.8183    3.6417   -6.3305 H         1 <0>         0.4022
     49 H16         5.5762    5.1680   -4.4892 H         1 <0>         0.1053
     50 H17         5.2421    3.4523   -4.1528 H         1 <0>         0.1065
     51 H18         1.3780    4.5239   -2.5254 H         1 <0>         0.1170
     52 H19         1.7121    6.2395   -2.8618 H         1 <0>         0.1312
     53 H20        -0.9607    5.6539    0.2563 H         1 <0>         0.4196
     54 H21        -2.1948    3.6508    0.0386 H         1 <0>         0.1465
     55 H22         0.0021   -0.0041    0.0020 H         1 <0>         0.1521
     56 H23         2.1183    1.2595   -0.0081 H         1 <0>         0.1516
@<TRIPOS>BOND
     1    1    2 1
     2    1   36 1
     3    1   37 1
     4    1   38 1
     5    2    3 1
     6    2   39 1
     7    2   40 1
     8    3    8 ar
     9    3    4 ar
    10    4    5 ar
    11    4   41 1
    12    5    6 ar
    13    5   42 1
    14    6    7 ar
    15    6    9 1
    16    7    8 ar
    17    7   43 1
    18    8   44 1
    19    9   10 1
    20    9   11 1
    21    9   12 1
    22   11   45 1
    23   11   46 1
    24   11   47 1
    25   12   13 am
    26   12   48 1
    27   13   14 2
    28   13   15 1
    29   15   16 1
    30   15   49 1
    31   15   50 1
    32   16   17 1
    33   17   18 2
    34   17   19 1
    35   19   20 1
    36   19   51 1
    37   19   52 1
    38   20   21 1
    39   20   31 1
    40   20   22 1
    41   22   23 2
    42   22   24 am
    43   24   25 1
    44   24   53 1
    45   25   30 ar
    46   25   26 ar
    47   26   27 ar
    48   26   54 1
    49   27   28 ar
    50   27   32 1
    51   28   29 ar
    52   28   55 1
    53   29   30 ar
    54   29   56 1
    55   30   31 1
    56   32   33 1
    57   32   34 1
    58   32   35 1
