@<TRIPOS>MOLECULE
ZINC02190290
   49    53     0     0     0
SMALL
USER_CHARGES

@<TRIPOS>ATOM
      1 C1         -0.8043   -0.1864    1.2693 C.ar      1 <0>        -0.0799
      2 C2         -0.3113   -0.8479    2.3801 C.ar      1 <0>        -0.1302
      3 C3          0.9219   -1.4638    2.3291 C.ar      1 <0>        -0.0526
      4 C4          1.6729   -1.4190    1.1527 C.ar      1 <0>        -0.1273
      5 C5          1.1691   -0.7501    0.0353 C.ar      1 <0>        -0.0615
      6 C6         -0.0655   -0.1381    0.1004 C.ar      1 <0>        -0.1323
      7 C7          2.9945   -2.0758    1.0907 C.2       1 <0>         0.5080
      8 O1          3.4304   -2.6567    2.0646 O.2       1 <0>        -0.4832
      9 O2          3.7165   -2.0307   -0.0459 O.3       1 <0>        -0.2936
     10 C8          4.9685   -2.5593   -0.0279 C.ar      1 <0>         0.0950
     11 C9          6.0743   -1.7245    0.0427 C.ar      1 <0>        -0.1161
     12 C10         7.3458   -2.2643    0.0613 C.ar      1 <0>        -0.0785
     13 C11         7.5168   -3.6353    0.0093 C.ar      1 <0>        -0.1284
     14 C12         6.4164   -4.4696   -0.0611 C.ar      1 <0>        -0.0781
     15 C13         5.1426   -3.9350   -0.0742 C.ar      1 <0>        -0.1177
     16 C14         8.9050   -4.2215    0.0288 C.3       1 <0>         0.4356
     17 H1          9.2661   -4.3170   -0.9953 H         1 <0>         0.1233
     18 N1          8.8559   -5.5573    0.6494 N.pl3     1 <0>        -0.6922
     19 C15         8.8633   -5.5994    2.0223 C.2       1 <0>         0.0886
     20 C16         9.3994   -4.5651    2.8032 C.2       1 <0>        -0.2818
     21 C17         9.3179   -4.7569    4.2414 C.2       1 <0>        -0.0210
     22 C18         8.7398   -5.9177    4.6210 C.2       1 <0>        -0.2197
     23 S1          8.3153   -6.7308    3.1050 S.3       1 <0>         0.2001
     24 C19         8.5157   -6.3964    6.0217 C.3       1 <0>        -0.0302
     25 C20         9.3758   -5.5452    6.9673 C.3       1 <0>        -0.1136
     26 C21         9.1780   -4.0669    6.6202 C.3       1 <0>        -0.1225
     27 C22         9.8282   -3.7578    5.2703 C.3       1 <0>        -0.0551
     28 C23         9.9908   -3.4052    2.0973 C.2       1 <0>         0.5988
     29 O3         10.6306   -2.5588    2.6940 O.2       1 <0>        -0.5294
     30 N2          9.7908   -3.3267    0.7658 N.am      1 <0>        -0.7397
     31 H2         -1.7723    0.2907    1.3135 H         1 <0>         0.1324
     32 H3         -0.8932   -0.8817    3.2894 H         1 <0>         0.1358
     33 H4          1.3059   -1.9792    3.1970 H         1 <0>         0.1388
     34 H5          1.7449   -0.7113   -0.8775 H         1 <0>         0.1392
     35 H6         -0.4563    0.3796   -0.7630 H         1 <0>         0.1344
     36 H7          5.9413   -0.6534    0.0827 H         1 <0>         0.1350
     37 H8          8.2069   -1.6148    0.1163 H         1 <0>         0.1335
     38 H9          6.5526   -5.5402   -0.1017 H         1 <0>         0.1307
     39 H10         4.2833   -4.5872   -0.1250 H         1 <0>         0.1311
     40 H11         8.8204   -6.3661    0.1152 H         1 <0>         0.4244
     41 H12         7.4633   -6.2862    6.2834 H         1 <0>         0.0788
     42 H13         8.8070   -7.4436    6.1029 H         1 <0>         0.0780
     43 H14         9.0698   -5.7224    7.9983 H         1 <0>         0.0728
     44 H15        10.4257   -5.8117    6.8451 H         1 <0>         0.0680
     45 H16         8.1118   -3.8469    6.5672 H         1 <0>         0.0648
     46 H17         9.6360   -3.4491    7.3927 H         1 <0>         0.0695
     47 H18        10.9112   -3.8446    5.3582 H         1 <0>         0.0796
     48 H19         9.5644   -2.7467    4.9600 H         1 <0>         0.0808
     49 H20        10.2618   -2.6374    0.2719 H         1 <0>         0.4076
@<TRIPOS>BOND
     1    1    6 ar
     2    1    2 ar
     3    1   31 1
     4    2    3 ar
     5    2   32 1
     6    3    4 ar
     7    3   33 1
     8    4    5 ar
     9    4    7 1
    10    5    6 ar
    11    5   34 1
    12    6   35 1
    13    7    8 2
    14    7    9 1
    15    9   10 1
    16   10   15 ar
    17   10   11 ar
    18   11   12 ar
    19   11   36 1
    20   12   13 ar
    21   12   37 1
    22   13   14 ar
    23   13   16 1
    24   14   15 ar
    25   14   38 1
    26   15   39 1
    27   16   17 1
    28   16   30 1
    29   16   18 1
    30   18   19 1
    31   18   40 1
    32   19   23 1
    33   19   20 2
    34   20   21 1
    35   20   28 1
    36   21   27 1
    37   21   22 2
    38   22   23 1
    39   22   24 1
    40   24   25 1
    41   24   41 1
    42   24   42 1
    43   25   26 1
    44   25   43 1
    45   25   44 1
    46   26   27 1
    47   26   45 1
    48   26   46 1
    49   27   47 1
    50   27   48 1
    51   28   29 2
    52   28   30 am
    53   30   49 1
