@<TRIPOS>MOLECULE
ZINC15956600
   70    74     0     0     0
SMALL
USER_CHARGES
(2S)-N-[2-(3,4-dimethoxyphenyl)ethyl]-2-(methoxy-methyl-dioxo-BLAHyl)propanamide
@<TRIPOS>ATOM
      1 C1          0.3797    4.1641   -1.2285 C.3       1 <0>        -0.1649
      2 C2          1.1197    3.6573    0.0110 C.3       1 <0>         0.1301
      3 H1          0.6095    4.0088    0.9078 H         1 <0>         0.1316
      4 C3          1.1401    2.1505    0.0027 C.2       1 <0>         0.5077
      5 O1          2.1985    1.5584   -0.0106 O.2       1 <0>        -0.5121
      6 N1         -0.0178    1.4608    0.0101 N.am      1 <0>        -0.7265
      7 C4          0.0021   -0.0041    0.0020 C.3       1 <0>         0.1258
      8 C5         -1.4333   -0.5336    0.0129 C.3       1 <0>        -0.0863
      9 C6         -1.4129   -2.0405    0.0046 C.ar      1 <0>        -0.0824
     10 C7         -1.3921   -2.7366    1.1989 C.ar      1 <0>        -0.1085
     11 C8         -1.3733   -4.1189    1.1966 C.ar      1 <0>        -0.1704
     12 C9         -1.3757   -4.8098   -0.0045 C.ar      1 <0>         0.1000
     13 C10        -1.3971   -4.1092   -1.2066 C.ar      1 <0>         0.1022
     14 C11        -1.4207   -2.7237   -1.1972 C.ar      1 <0>        -0.1652
     15 O2         -1.3996   -4.7827   -2.3880 O.3       1 <0>        -0.3059
     16 C12        -1.4220   -3.9981   -3.5821 C.3       1 <0>         0.0254
     17 O3         -1.3577   -6.1696   -0.0085 O.3       1 <0>        -0.3064
     18 C13        -1.3367   -6.8219    1.2628 C.3       1 <0>         0.0256
     19 N2          2.4941    4.1644    0.0006 N.am      1 <0>        -0.5633
     20 C14         3.0223    4.9463    0.9677 C.2       1 <0>         0.5388
     21 O4          2.4919    5.2951    2.0005 O.2       1 <0>        -0.4635
     22 C15         4.4127    5.2936    0.4918 C.3       1 <0>         0.1847
     23 C16         5.4631    4.8754    1.4926 C.2       1 <0>         0.0670
     24 C17         6.4985    4.0646    1.1765 C.2       1 <0>        -0.1373
     25 C18         7.2876    3.9110    2.3862 C.ar      1 <0>        -0.0680
     26 C19         8.4620    3.2026    2.6606 C.ar      1 <0>        -0.1006
     27 C20         8.9463    3.2778    3.9584 C.ar      1 <0>         0.0982
     28 C21         8.2995    4.0193    4.9397 C.ar      1 <0>        -0.1756
     29 C22         7.1380    4.7263    4.6847 C.ar      1 <0>        -0.0892
     30 C23         6.6307    4.6675    3.3883 C.ar      1 <0>         0.0793
     31 N3          5.5292    5.2348    2.8110 N.pl3     1 <0>        -0.5704
     32 H2          4.8913    5.8059    3.2669 H         1 <0>         0.4210
     33 O5         10.0855    2.6078    4.2789 O.3       1 <0>        -0.3202
     34 C24        10.5441    2.7163    5.6280 C.3       1 <0>         0.0273
     35 C25         6.7602    3.4313   -0.1661 C.3       1 <0>        -0.0695
     36 C26         5.9092    4.1090   -1.2504 C.3       1 <0>         0.1520
     37 N4          4.5889    4.4034   -0.6802 N.am      1 <0>        -0.6105
     38 C27         3.3869    3.9050   -0.9684 C.2       1 <0>         0.7233
     39 O6          3.1295    3.2931   -1.9864 O.2       1 <0>        -0.5180
     40 C28         4.5372    6.7719    0.1178 C.3       1 <0>        -0.1393
     41 H3         -0.6429    3.7869   -1.2208 H         1 <0>         0.0826
     42 H4          0.3649    5.2540   -1.2225 H         1 <0>         0.0756
     43 H5          0.8899    3.8126   -2.1253 H         1 <0>         0.0869
     44 H6         -0.8643    1.9343    0.0167 H         1 <0>         0.4018
     45 H7          0.5123   -0.3556   -0.8948 H         1 <0>         0.0720
     46 H8          0.5293   -0.3651    0.8851 H         1 <0>         0.0715
     47 H9         -1.9435   -0.1821    0.9097 H         1 <0>         0.0823
     48 H10        -1.9605   -0.1726   -0.8702 H         1 <0>         0.0807
     49 H11        -1.3902   -2.1992    2.1358 H         1 <0>         0.1278
     50 H12        -1.3571   -4.6603    2.1310 H         1 <0>         0.1366
     51 H13        -1.4411   -2.1776   -2.1287 H         1 <0>         0.1361
     52 H14        -1.4216   -4.6574   -4.4501 H         1 <0>         0.1019
     53 H15        -2.3207   -3.3813   -3.5947 H         1 <0>         0.0550
     54 H16        -0.5410   -3.3571   -3.6123 H         1 <0>         0.0557
     55 H17        -0.4454   -6.5188    1.8120 H         1 <0>         0.0555
     56 H18        -2.2251   -6.5424    1.8292 H         1 <0>         0.0553
     57 H19        -1.3238   -7.9020    1.1168 H         1 <0>         0.1016
     58 H20         8.9666    2.6255    1.8999 H         1 <0>         0.1397
     59 H21         8.7180    4.0449    5.9350 H         1 <0>         0.1306
     60 H22         6.6461    5.2991    5.4568 H         1 <0>         0.1341
     61 H23        10.7440    3.7622    5.8608 H         1 <0>         0.0543
     62 H24         9.7792    2.3334    6.3036 H         1 <0>         0.0539
     63 H25        11.4588    2.1359    5.7486 H         1 <0>         0.0992
     64 H26         7.8157    3.5388   -0.4161 H         1 <0>         0.0949
     65 H27         6.5062    2.3722   -0.1212 H         1 <0>         0.0828
     66 H28         6.3833    5.0389   -1.5647 H         1 <0>         0.0877
     67 H29         5.8001    3.4417   -2.1053 H         1 <0>         0.1063
     68 H30         4.3239    7.3871    0.9919 H         1 <0>         0.0843
     69 H31         5.5499    6.9745   -0.2307 H         1 <0>         0.0892
     70 H32         3.8264    7.0074   -0.6744 H         1 <0>         0.0785
@<TRIPOS>BOND
     1    1    2 1
     2    1   41 1
     3    1   42 1
     4    1   43 1
     5    2    3 1
     6    2    4 1
     7    2   19 1
     8    4    5 2
     9    4    6 am
    10    6    7 1
    11    6   44 1
    12    7    8 1
    13    7   45 1
    14    7   46 1
    15    8    9 1
    16    8   47 1
    17    8   48 1
    18    9   14 ar
    19    9   10 ar
    20   10   11 ar
    21   10   49 1
    22   11   12 ar
    23   11   50 1
    24   12   13 ar
    25   12   17 1
    26   13   14 ar
    27   13   15 1
    28   14   51 1
    29   15   16 1
    30   16   52 1
    31   16   53 1
    32   16   54 1
    33   17   18 1
    34   18   55 1
    35   18   56 1
    36   18   57 1
    37   19   38 am
    38   19   20 am
    39   20   21 2
    40   20   22 1
    41   22   37 1
    42   22   23 1
    43   22   40 1
    44   23   31 1
    45   23   24 2
    46   24   25 1
    47   24   35 1
    48   25   30 ar
    49   25   26 ar
    50   26   27 ar
    51   26   58 1
    52   27   28 ar
    53   27   33 1
    54   28   29 ar
    55   28   59 1
    56   29   30 ar
    57   29   60 1
    58   30   31 1
    59   31   32 1
    60   33   34 1
    61   34   61 1
    62   34   62 1
    63   34   63 1
    64   35   36 1
    65   35   64 1
    66   35   65 1
    67   36   37 1
    68   36   66 1
    69   36   67 1
    70   37   38 am
    71   38   39 2
    72   40   68 1
    73   40   69 1
    74   40   70 1
