@<TRIPOS>MOLECULE
ZINC09068248
   54    58     0     0     0
SMALL
USER_CHARGES
(5R)-5-(2,5-dimethoxyphenyl)-3-hydroxy-1-(6-methoxy-1,3-benzothiazol-2-yl)-4-(thiophene-2-carbonyl)-5H-pyrrol-2-one
@<TRIPOS>ATOM
      1 C1          9.8203    1.8764    4.0507 C.3       1 <0>         0.0277
      2 O1          9.4305    2.4058    2.7819 O.3       1 <0>        -0.3165
      3 C2          8.8426    3.6320    2.7788 C.ar      1 <0>         0.0767
      4 C3          8.6455    4.3097    3.9730 C.ar      1 <0>        -0.1606
      5 C4          8.0488    5.5553    3.9697 C.ar      1 <0>        -0.1862
      6 C5          7.6498    6.1301    2.7720 C.ar      1 <0>         0.1319
      7 C6          7.8421    5.4503    1.5786 C.ar      1 <0>        -0.0925
      8 C7          8.4397    4.2047    1.5818 C.ar      1 <0>        -0.0567
      9 C8          7.4047    6.0729    0.2778 C.3       1 <0>         0.2652
     10 H1          7.8167    5.4705   -0.5452 H         1 <0>         0.0863
     11 C9          7.8550    7.5137    0.2105 C.2       1 <0>        -0.4545
     12 C10         6.7360    8.2680    0.1123 C.2       1 <0>         0.3072
     13 C11         5.5539    7.3849    0.1053 C.2       1 <0>         0.5199
     14 O2          4.4016    7.7632    0.0272 O.2       1 <0>        -0.4867
     15 N1          5.9394    6.0993    0.1982 N.am      1 <0>        -0.4981
     16 C12         5.1023    4.9972    0.2207 C.2       1 <0>         0.4079
     17 N2          5.4170    3.7262    0.3093 N.2       1 <0>        -0.5404
     18 C13         4.4863    2.7463    0.3202 C.ar      1 <0>         0.0875
     19 C14         4.6901    1.3499    0.4110 C.ar      1 <0>        -0.0343
     20 C15         3.6376    0.4888    0.4148 C.ar      1 <0>        -0.1856
     21 C16         2.3249    0.9414    0.3192 C.ar      1 <0>         0.1249
     22 C17         2.0839    2.3045    0.2285 C.ar      1 <0>        -0.0900
     23 C18         3.1431    3.1777    0.2296 C.ar      1 <0>        -0.1432
     24 S1          3.3178    4.9432    0.1365 S.3       1 <0>         0.0550
     25 O3          1.2909    0.0584    0.3203 O.3       1 <0>        -0.3130
     26 C19         1.6221   -1.3284    0.4167 C.3       1 <0>         0.0243
     27 O4          6.7058    9.6192    0.0323 O.3       1 <0>        -0.5934
     28 C20         9.2387    8.0011    0.2497 C.2       1 <0>         0.5014
     29 O5          9.4616    9.1964    0.3295 O.2       1 <0>        -0.4744
     30 C21        10.3524    7.0504    0.1929 C.2       1 <0>        -0.2027
     31 C22        11.7131    7.2860    0.3413 C.2       1 <0>        -0.1208
     32 C23        12.5479    6.2023    0.2454 C.2       1 <0>        -0.1706
     33 C24        12.0163    4.9737    0.0027 C.2       1 <0>        -0.2346
     34 S2         10.3145    5.2897   -0.0928 S.3       1 <0>         0.1577
     35 O6          7.0666    7.3585    2.7683 O.3       1 <0>        -0.2848
     36 C25         7.0011    8.0492    4.0176 C.3       1 <0>         0.0254
     37 H2         10.2794    0.8868    3.9097 H         1 <0>         0.0954
     38 H3          8.9346    1.7812    4.6960 H         1 <0>         0.0504
     39 H4         10.5470    2.5538    4.5230 H         1 <0>         0.0510
     40 H5          8.9589    3.8635    4.9052 H         1 <0>         0.1239
     41 H6          7.8957    6.0831    4.8995 H         1 <0>         0.1270
     42 H7          8.5929    3.6769    0.6521 H         1 <0>         0.1375
     43 H8          5.6956    0.9621    0.4825 H         1 <0>         0.1342
     44 H9          3.8250   -0.5721    0.4899 H         1 <0>         0.1336
     45 H10         1.0720    2.6754    0.1572 H         1 <0>         0.1370
     46 H11         0.6995   -1.9273    0.4067 H         1 <0>         0.1005
     47 H12         2.1675   -1.5108    1.3544 H         1 <0>         0.0566
     48 H13         2.2542   -1.6146   -0.4368 H         1 <0>         0.0570
     49 H14        12.0965    8.2784    0.5271 H         1 <0>         0.1373
     50 H15        13.6153    6.3234    0.3565 H         1 <0>         0.1246
     51 H16        12.5303    4.0300   -0.1050 H         1 <0>         0.1768
     52 H17         6.5093    9.0225    3.8731 H         1 <0>         0.0999
     53 H18         8.0191    8.2064    4.4034 H         1 <0>         0.0520
     54 H19         6.4244    7.4503    4.7379 H         1 <0>         0.0458
@<TRIPOS>BOND
     1    1    2 1
     2    1   37 1
     3    1   38 1
     4    1   39 1
     5    2    3 1
     6    3    8 ar
     7    3    4 ar
     8    4    5 ar
     9    4   40 1
    10    5    6 ar
    11    5   41 1
    12    6    7 ar
    13    6   35 1
    14    7    8 ar
    15    7    9 1
    16    8   42 1
    17    9   10 1
    18    9   15 1
    19    9   11 1
    20   11   12 2
    21   11   28 1
    22   12   13 1
    23   12   27 1
    24   13   14 2
    25   13   15 am
    26   15   16 1
    27   16   24 1
    28   16   17 2
    29   17   18 1
    30   18   23 ar
    31   18   19 ar
    32   19   20 ar
    33   19   43 1
    34   20   21 ar
    35   20   44 1
    36   21   22 ar
    37   21   25 1
    38   22   23 ar
    39   22   45 1
    40   23   24 1
    41   25   26 1
    42   26   46 1
    43   26   47 1
    44   26   48 1
    45   28   29 2
    46   28   30 1
    47   30   34 1
    48   30   31 2
    49   31   32 1
    50   31   49 1
    51   32   33 2
    52   32   50 1
    53   33   34 1
    54   33   51 1
    55   35   36 1
    56   36   52 1
    57   36   53 1
    58   36   54 1
