@<TRIPOS>MOLECULE
ZINC39682570
   68    72     0     0     0
SMALL
USER_CHARGES

@<TRIPOS>ATOM
      1 C1          4.1882   -3.4497   -4.6942 C.ar      1 <0>        -0.1226
      2 C2          3.6346   -2.2084   -4.4422 C.ar      1 <0>        -0.1250
      3 C3          3.8740   -1.5768   -3.2361 C.ar      1 <0>        -0.0571
      4 C4          4.6666   -2.1868   -2.2818 C.ar      1 <0>        -0.0776
      5 C5          5.2195   -3.4286   -2.5335 C.ar      1 <0>        -0.1265
      6 C6          4.9812   -4.0595   -3.7402 C.ar      1 <0>        -0.1332
      7 C7          4.9285   -1.4979   -0.9673 C.3       1 <0>         0.2022
      8 H1          4.1648   -0.7392   -0.7963 H         1 <0>         0.1059
      9 C8          6.3068   -0.8348   -1.0047 C.3       1 <0>        -0.1822
     10 C9          6.2957    0.2910   -2.0064 C.2       1 <0>         0.4950
     11 O1          5.2513    0.6190   -2.5432 O.co2     1 <0>        -0.6831
     12 O2          7.3310    0.8738   -2.2801 O.co2     1 <0>        -0.7004
     13 N1          4.8896   -2.4828    0.1165 N.am      1 <0>        -0.7185
     14 C10         4.5183   -2.1063    1.3562 C.2       1 <0>         0.5139
     15 O3          4.3009   -0.9374    1.5954 O.2       1 <0>        -0.5174
     16 C11         4.3732   -3.1379    2.4452 C.3       1 <0>        -0.1130
     17 H2          4.1170   -4.1071    2.0172 H         1 <0>         0.1089
     18 C12         3.2972   -2.6980    3.4630 C.3       1 <0>         0.1085
     19 N2          3.8240   -3.1354    4.7773 N.am      1 <0>        -0.6151
     20 C13         5.2782   -2.8565    4.7029 C.3       1 <0>         0.1122
     21 C14         5.6719   -3.2399    3.2625 C.3       1 <0>        -0.0722
     22 C15         6.7137   -2.2643    2.7235 C.3       1 <0>        -0.1514
     23 C16         8.0150   -2.4256    3.5143 C.3       1 <0>        -0.0069
     24 N3          8.4976   -3.8062    3.3898 N.4       1 <0>        -0.5045
     25 C17         7.5313   -4.7309    3.9948 C.3       1 <0>        -0.0091
     26 C18         6.2096   -4.6672    3.2242 C.3       1 <0>        -0.1344
     27 C19         3.1365   -3.6671    5.8073 C.2       1 <0>         0.6333
     28 O4          3.7173   -3.9780    6.8309 O.2       1 <0>        -0.5175
     29 C20         1.6903   -3.8709    5.6952 C.2       1 <0>        -0.0866
     30 C21         0.8694   -4.3968    6.6689 C.2       1 <0>        -0.1021
     31 C22        -0.4255   -4.4098    6.1413 C.2       1 <0>        -0.1944
     32 C23        -0.3496   -3.8967    4.8779 C.2       1 <0>         0.0681
     33 O5          0.9284   -3.5706    4.6219 O.3       1 <0>        -0.1477
     34 C24        -1.4845   -3.7237    3.9496 C.ar      1 <0>        -0.0744
     35 C25        -2.3630   -4.7826    3.7101 C.ar      1 <0>        -0.0595
     36 C26        -3.4210   -4.6143    2.8418 C.ar      1 <0>        -0.1291
     37 C27        -3.6148   -3.3994    2.2072 C.ar      1 <0>        -0.0705
     38 C28        -2.7501   -2.3453    2.4377 C.ar      1 <0>        -0.1523
     39 C29        -1.6885   -2.4968    3.3101 C.ar      1 <0>         0.1273
     40 F1         -0.8474   -1.4648    3.5396 F         1 <0>        -0.1264
     41 H3          3.9975   -3.9451   -5.6348 H         1 <0>         0.1165
     42 H4          3.0154   -1.7318   -5.1877 H         1 <0>         0.1204
     43 H5          3.4421   -0.6067   -3.0394 H         1 <0>         0.1405
     44 H6          5.8390   -3.9050   -1.7881 H         1 <0>         0.1054
     45 H7          5.4135   -5.0295   -3.9370 H         1 <0>         0.1146
     46 H8          6.5471   -0.4403   -0.0174 H         1 <0>         0.0604
     47 H9          7.0565   -1.5712   -1.2940 H         1 <0>         0.0542
     48 H10         5.1311   -3.4059   -0.0582 H         1 <0>         0.3911
     49 H11         3.1759   -1.6149    3.4436 H         1 <0>         0.1046
     50 H12         2.3487   -3.1913    3.2505 H         1 <0>         0.1007
     51 H13         5.4725   -1.7991    4.8827 H         1 <0>         0.0894
     52 H14         5.8207   -3.4713    5.4210 H         1 <0>         0.0902
     53 H15         6.8993   -2.4754    1.6704 H         1 <0>         0.1025
     54 H16         6.3465   -1.2437    2.8313 H         1 <0>         0.1305
     55 H17         8.7664   -1.7413    3.1204 H         1 <0>         0.1413
     56 H18         7.8321   -2.1982    4.5646 H         1 <0>         0.1319
     57 H19         8.6133   -4.0339    2.4137 H         1 <0>         0.4292
     58 H20         7.9262   -5.7460    3.9550 H         1 <0>         0.1373
     59 H21         7.3599   -4.4486    5.0336 H         1 <0>         0.1325
     60 H22         5.4870   -5.3407    3.6849 H         1 <0>         0.1160
     61 H23         6.3771   -4.9652    2.1892 H         1 <0>         0.0978
     62 H24         1.1685   -4.7344    7.6502 H         1 <0>         0.1664
     63 H25        -1.3177   -4.7601    6.6390 H         1 <0>         0.1638
     64 H26        -2.2138   -5.7316    4.2037 H         1 <0>         0.1403
     65 H27        -4.1004   -5.4330    2.6561 H         1 <0>         0.1398
     66 H28        -4.4454   -3.2743    1.5284 H         1 <0>         0.1409
     67 H29        -2.9069   -1.4005    1.9385 H         1 <0>         0.1452
     68 H30         9.3857   -3.8944    3.8606 H         1 <0>         0.4316
@<TRIPOS>BOND
     1    1    6 ar
     2    1    2 ar
     3    1   41 1
     4    2    3 ar
     5    2   42 1
     6    3    4 ar
     7    3   43 1
     8    4    5 ar
     9    4    7 1
    10    5    6 ar
    11    5   44 1
    12    6   45 1
    13    7    8 1
    14    7    9 1
    15    7   13 1
    16    9   10 1
    17    9   46 1
    18    9   47 1
    19   10   11 2
    20   10   12 1
    21   13   14 am
    22   13   48 1
    23   14   15 2
    24   14   16 1
    25   16   17 1
    26   16   21 1
    27   16   18 1
    28   18   19 1
    29   18   49 1
    30   18   50 1
    31   19   20 1
    32   19   27 am
    33   20   21 1
    34   20   51 1
    35   20   52 1
    36   21   26 1
    37   21   22 1
    38   22   23 1
    39   22   53 1
    40   22   54 1
    41   23   24 1
    42   23   55 1
    43   23   56 1
    44   24   25 1
    45   24   57 1
    46   24   68 1
    47   25   26 1
    48   25   58 1
    49   25   59 1
    50   26   60 1
    51   26   61 1
    52   27   28 2
    53   27   29 1
    54   29   33 1
    55   29   30 2
    56   30   31 1
    57   30   62 1
    58   31   32 2
    59   31   63 1
    60   32   33 1
    61   32   34 1
    62   34   39 ar
    63   34   35 ar
    64   35   36 ar
    65   35   64 1
    66   36   37 ar
    67   36   65 1
    68   37   38 ar
    69   37   66 1
    70   38   39 ar
    71   38   67 1
    72   39   40 1
