@<TRIPOS>MOLECULE
ZINC35707467
   59    61     0     0     0
SMALL
USER_CHARGES

@<TRIPOS>ATOM
      1 C1         -0.1558   -1.3008   -0.8117 C.3       1 <0>        -0.1716
      2 C2          0.3399   -0.0865   -0.0239 C.3       1 <0>         0.0942
      3 N1          1.0032   -0.5374    1.2021 N.am      1 <0>        -0.5384
      4 C3          2.3181   -0.8986    1.1281 C.2       1 <0>         0.2612
      5 C4          2.9870   -1.3230    2.2218 C.2       1 <0>        -0.2855
      6 C5          2.2290   -1.3840    3.5324 C.3       1 <0>         0.2400
      7 H1          2.2735   -2.4095    3.8989 H         1 <0>         0.0920
      8 N2          0.8153   -0.9725    3.5054 N.am      1 <0>        -0.7116
      9 C6          0.2876   -0.5671    2.3334 C.2       1 <0>         0.7043
     10 O1         -0.8775   -0.2218    2.3014 O.2       1 <0>        -0.5587
     11 C7          2.9480   -0.5083    4.5261 C.ar      1 <0>        -0.1190
     12 C8          2.7579    0.8612    4.5031 C.ar      1 <0>        -0.0773
     13 C9          3.4157    1.6666    5.4120 C.ar      1 <0>        -0.1221
     14 C10         4.2685    1.0995    6.3502 C.ar      1 <0>         0.1478
     15 C11         4.4569   -0.2765    6.3709 C.ar      1 <0>        -0.1470
     16 C12         3.7921   -1.0767    5.4625 C.ar      1 <0>        -0.0582
     17 N3          4.9365    1.9121    7.2717 N.am      1 <0>        -0.6684
     18 C13         4.3313    3.0113    7.7637 C.2       1 <0>         0.5613
     19 O2          3.2373    3.3403    7.3480 O.2       1 <0>        -0.5081
     20 C14         4.9978    3.8167    8.8087 C.ar      1 <0>        -0.1316
     21 C15         6.2567    3.4448    9.2841 C.ar      1 <0>        -0.0717
     22 C16         6.8735    4.2004   10.2594 C.ar      1 <0>        -0.1177
     23 C17         6.2476    5.3252   10.7669 C.ar      1 <0>        -0.0615
     24 C18         4.9992    5.6997   10.3006 C.ar      1 <0>        -0.0996
     25 C19         4.3738    4.9554    9.3202 C.ar      1 <0>        -0.0289
     26 Br1         4.1526    7.2384   11.0017 Br        1 <0>        -0.0341
     27 C20         4.3487   -1.6982    2.1463 C.2       1 <0>         0.5382
     28 O3          4.9374   -1.6416    1.0829 O.2       1 <0>        -0.5207
     29 O4          4.9950   -2.1190    3.2537 O.3       1 <0>        -0.3350
     30 C21         6.3690   -2.4821    3.1044 C.3       1 <0>         0.0703
     31 C22         6.9280   -2.9298    4.4564 C.3       1 <0>         0.0622
     32 O5          6.2645   -4.1245    4.8742 O.3       1 <0>        -0.3836
     33 C23         6.7148   -4.6296    6.1328 C.3       1 <0>         0.0303
     34 C24         3.0342   -0.8228   -0.1958 C.3       1 <0>        -0.1313
     35 H2         -0.8623   -1.8651   -0.2029 H         1 <0>         0.0643
     36 H3         -0.6493   -0.9653   -1.7239 H         1 <0>         0.0789
     37 H4          0.6908   -1.9370   -1.0695 H         1 <0>         0.0617
     38 H5          1.0463    0.4778   -0.6326 H         1 <0>         0.0964
     39 H6         -0.5067    0.5497    0.2340 H         1 <0>         0.1074
     40 H7          0.2776   -0.9897    4.3125 H         1 <0>         0.4330
     41 H8          2.0947    1.3015    3.7733 H         1 <0>         0.1158
     42 H9          3.2674    2.7361    5.3930 H         1 <0>         0.1374
     43 H10         5.1196   -0.7205    7.0989 H         1 <0>         0.1243
     44 H11         3.9347   -2.1470    5.4809 H         1 <0>         0.1352
     45 H12         5.8353    1.6847    7.5567 H         1 <0>         0.4099
     46 H13         6.7464    2.5669    8.8892 H         1 <0>         0.1331
     47 H14         7.8472    3.9132   10.6279 H         1 <0>         0.1425
     48 H15         6.7350    5.9132   11.5305 H         1 <0>         0.1412
     49 H16         3.4019    5.2510    8.9535 H         1 <0>         0.1486
     50 H17         6.4531   -3.2993    2.3879 H         1 <0>         0.0762
     51 H18         6.9347   -1.6231    2.7438 H         1 <0>         0.0819
     52 H19         7.9968   -3.1218    4.3621 H         1 <0>         0.0708
     53 H20         6.7635   -2.1455    5.1953 H         1 <0>         0.0616
     54 H21         7.7792   -4.8569    6.0733 H         1 <0>         0.0415
     55 H22         6.5460   -3.8806    6.9065 H         1 <0>         0.0423
     56 H23         6.1628   -5.5368    6.3788 H         1 <0>         0.0878
     57 H24         2.3697   -0.3907   -0.9440 H         1 <0>         0.0767
     58 H25         3.9215   -0.1980   -0.0936 H         1 <0>         0.1069
     59 H26         3.3292   -1.8248   -0.5071 H         1 <0>         0.1042
@<TRIPOS>BOND
     1    1    2 1
     2    1   35 1
     3    1   36 1
     4    1   37 1
     5    2    3 1
     6    2   38 1
     7    2   39 1
     8    3    9 am
     9    3    4 1
    10    4    5 2
    11    4   34 1
    12    5    6 1
    13    5   27 1
    14    6    7 1
    15    6    8 1
    16    6   11 1
    17    8    9 am
    18    8   40 1
    19    9   10 2
    20   11   16 ar
    21   11   12 ar
    22   12   13 ar
    23   12   41 1
    24   13   14 ar
    25   13   42 1
    26   14   15 ar
    27   14   17 1
    28   15   16 ar
    29   15   43 1
    30   16   44 1
    31   17   18 am
    32   17   45 1
    33   18   19 2
    34   18   20 1
    35   20   25 ar
    36   20   21 ar
    37   21   22 ar
    38   21   46 1
    39   22   23 ar
    40   22   47 1
    41   23   24 ar
    42   23   48 1
    43   24   25 ar
    44   24   26 1
    45   25   49 1
    46   27   28 2
    47   27   29 1
    48   29   30 1
    49   30   31 1
    50   30   50 1
    51   30   51 1
    52   31   32 1
    53   31   52 1
    54   31   53 1
    55   32   33 1
    56   33   54 1
    57   33   55 1
    58   33   56 1
    59   34   57 1
    60   34   58 1
    61   34   59 1
