@<TRIPOS>MOLECULE
ZINC14653322
   53    55     0     0     0
SMALL
USER_CHARGES
methyl 2-[(5-bromo-2-propoxy-benzoyl)carbamothioylamino]-4,5,6,7-tetrahydrobenzothiophene-3-carboxylate
@<TRIPOS>ATOM
      1 C1         -1.2300    7.6986    0.0533 C.3       1 <0>        -0.1504
      2 C2         -1.2983    6.1702    0.0456 C.3       1 <0>        -0.1229
      3 C3          0.1200    5.5964    0.0301 C.3       1 <0>         0.0497
      4 O1          0.0563    4.1689    0.0230 O.3       1 <0>        -0.2743
      5 C4          1.2363    3.4997    0.0090 C.ar      1 <0>         0.2163
      6 C5          2.4337    4.1996    0.0019 C.ar      1 <0>        -0.2095
      7 C6          3.6341    3.5178   -0.0128 C.ar      1 <0>        -0.0125
      8 C7          3.6531    2.1316   -0.0204 C.ar      1 <0>        -0.1395
      9 C8          2.4725    1.4200   -0.0081 C.ar      1 <0>        -0.0202
     10 C9          1.2506    2.0981    0.0014 C.ar      1 <0>        -0.1731
     11 C10        -0.0162    1.3436    0.0094 C.2       1 <0>         0.5411
     12 O2         -1.0771    1.9370    0.0177 O.2       1 <0>        -0.3806
     13 N1          0.0021   -0.0041    0.0020 N.am      1 <0>        -0.6347
     14 C11        -1.1558   -0.6938    0.0094 C.2       1 <0>         0.4797
     15 S1         -2.6499    0.1420    0.0281 S.2       1 <0>        -0.3702
     16 N2         -1.1375   -2.0414    0.0020 N.pl3     1 <0>        -0.5563
     17 C12        -2.3275   -2.7501    0.0095 C.2       1 <0>         0.0249
     18 C13        -2.5123   -4.1269   -0.0018 C.2       1 <0>        -0.1700
     19 C14        -3.8796   -4.6202    0.0148 C.2       1 <0>        -0.0783
     20 C15        -4.8352   -3.6664    0.0282 C.2       1 <0>        -0.2392
     21 S2         -3.9470   -2.1349    0.0277 S.3       1 <0>         0.3360
     22 C16        -6.3184   -3.8739    0.0400 C.3       1 <0>        -0.0377
     23 C17        -6.6059   -5.3329   -0.3432 C.3       1 <0>        -0.1174
     24 C18        -5.6951   -6.2478    0.4806 C.3       1 <0>        -0.1164
     25 C19        -4.2468   -6.0991    0.0113 C.3       1 <0>        -0.0642
     26 C20        -1.3732   -5.0461   -0.0254 C.2       1 <0>         0.5250
     27 O3         -0.8868   -5.4388    1.0182 O.2       1 <0>        -0.4939
     28 O4         -0.8630   -5.4576   -1.2043 O.3       1 <0>        -0.3513
     29 C21         0.2662   -6.3689   -1.1517 C.3       1 <0>         0.0303
     30 Br1         5.3059    1.2129   -0.0411 Br        1 <0>        -0.0342
     31 H1         -0.6927    8.0339    0.9404 H         1 <0>         0.0577
     32 H2         -0.7083    8.0435   -0.8395 H         1 <0>         0.0577
     33 H3         -2.2404    8.1074    0.0643 H         1 <0>         0.0674
     34 H4         -1.8356    5.8349   -0.8415 H         1 <0>         0.0776
     35 H5         -1.8200    5.8253    0.9384 H         1 <0>         0.0776
     36 H6          0.6573    5.9317    0.9172 H         1 <0>         0.0683
     37 H7          0.6417    5.9413   -0.8626 H         1 <0>         0.0683
     38 H8          2.4271    5.2795    0.0081 H         1 <0>         0.1503
     39 H9          4.5637    4.0675   -0.0180 H         1 <0>         0.1461
     40 H10         2.4918    0.3401   -0.0095 H         1 <0>         0.1377
     41 H11         0.8486   -0.4776   -0.0086 H         1 <0>         0.4128
     42 H12        -0.2910   -2.5149   -0.0087 H         1 <0>         0.4125
     43 H13        -6.7094   -3.6723    1.0373 H         1 <0>         0.0817
     44 H14        -6.7884   -3.2049   -0.6808 H         1 <0>         0.0806
     45 H15        -7.6487   -5.5678   -0.1303 H         1 <0>         0.0703
     46 H16        -6.4082   -5.4774   -1.4053 H         1 <0>         0.0669
     47 H17        -5.7644   -5.9749    1.5336 H         1 <0>         0.0663
     48 H18        -6.0112   -7.2832    0.3534 H         1 <0>         0.0673
     49 H19        -3.5860   -6.6413    0.6876 H         1 <0>         0.0680
     50 H20        -4.1465   -6.5003   -0.9972 H         1 <0>         0.0756
     51 H21         0.5779   -6.6202   -2.1655 H         1 <0>         0.1047
     52 H22         1.0932   -5.8927   -0.6249 H         1 <0>         0.0621
     53 H23        -0.0247   -7.2779   -0.6251 H         1 <0>         0.0663
@<TRIPOS>BOND
     1    1    2 1
     2    1   31 1
     3    1   32 1
     4    1   33 1
     5    2    3 1
     6    2   34 1
     7    2   35 1
     8    3    4 1
     9    3   36 1
    10    3   37 1
    11    4    5 1
    12    5   10 ar
    13    5    6 ar
    14    6    7 ar
    15    6   38 1
    16    7    8 ar
    17    7   39 1
    18    8    9 ar
    19    8   30 1
    20    9   10 ar
    21    9   40 1
    22   10   11 1
    23   11   12 2
    24   11   13 am
    25   13   14 1
    26   13   41 1
    27   14   15 2
    28   14   16 1
    29   16   17 1
    30   16   42 1
    31   17   21 1
    32   17   18 2
    33   18   19 1
    34   18   26 1
    35   19   25 1
    36   19   20 2
    37   20   21 1
    38   20   22 1
    39   22   23 1
    40   22   43 1
    41   22   44 1
    42   23   24 1
    43   23   45 1
    44   23   46 1
    45   24   25 1
    46   24   47 1
    47   24   48 1
    48   25   49 1
    49   25   50 1
    50   26   27 2
    51   26   28 1
    52   28   29 1
    53   29   51 1
    54   29   52 1
    55   29   53 1
