@<TRIPOS>MOLECULE
ZINC24344285
   54    57     0     0     0
SMALL
USER_CHARGES
N-[2-[(2,3-dichlorophenyl)methyl]pyrazol-3-yl]-2-[(5S,10R)-10-methyl-2,4-dioxo-1,3-diazaspiro[4.5]decan-3-yl]acetamide
@<TRIPOS>ATOM
      1 C1         -1.5425    3.5590    2.5374 C.3       1 <0>        -0.1553
      2 C2         -0.7930    3.1001    1.2849 C.3       1 <0>        -0.0832
      3 H1          0.2286    3.5077    1.2958 H         1 <0>         0.0929
      4 C3         -1.5294    3.5984    0.0389 C.3       1 <0>        -0.1127
      5 C4         -0.7905    3.1219   -1.2134 C.3       1 <0>        -0.1270
      6 C5         -0.7521    1.5924   -1.2329 C.3       1 <0>        -0.1168
      7 C6         -0.0127    1.0858    0.0080 C.3       1 <0>        -0.1150
      8 C7         -0.7254    1.5770    1.2632 C.3       1 <0>         0.1213
      9 C8         -0.0258    1.0638    2.5010 C.2       1 <0>         0.5383
     10 O1          1.1149    1.2876    2.8453 O.2       1 <0>        -0.4606
     11 N1         -0.9382    0.3041    3.1417 N.am      1 <0>        -0.5637
     12 C9         -2.1026    0.2708    2.4821 C.2       1 <0>         0.7200
     13 O2         -3.0773   -0.3478    2.8621 O.2       1 <0>        -0.5416
     14 N2         -2.0727    0.9998    1.3500 N.am      1 <0>        -0.7219
     15 C10        -0.6857   -0.3979    4.4025 C.3       1 <0>         0.1033
     16 C11        -1.0407    0.5018    5.5582 C.2       1 <0>         0.5104
     17 O3         -1.4629    1.6194    5.3493 O.2       1 <0>        -0.4879
     18 N3         -0.8888    0.0645    6.8240 N.am      1 <0>        -0.6591
     19 C12        -1.2173    0.8971    7.8936 C.2       1 <0>         0.3109
     20 C13        -1.6993    2.1670    7.8057 C.2       1 <0>        -0.2755
     21 C14        -1.8942    2.6417    9.1056 C.2       1 <0>         0.0599
     22 N4         -1.5452    1.6997    9.9441 N.2       1 <0>        -0.2729
     23 N5         -1.1203    0.5873    9.2067 N.pl3     1 <0>        -0.3823
     24 C15        -0.6504   -0.6853    9.7597 C.3       1 <0>         0.1692
     25 C16         0.8407   -0.6222    9.9689 C.ar      1 <0>        -0.1028
     26 C17         1.6960   -1.1122    8.9996 C.ar      1 <0>        -0.0895
     27 C18         3.0639   -1.0494    9.1882 C.ar      1 <0>        -0.1022
     28 C19         3.5780   -0.5069   10.3512 C.ar      1 <0>        -0.0883
     29 C20         2.7236   -0.0214   11.3244 C.ar      1 <0>        -0.0339
     30 C21         1.3532   -0.0791   11.1330 C.ar      1 <0>        -0.0078
     31 Cl1         0.2794    0.5294   12.3538 Cl        1 <0>        -0.0227
     32 Cl2         3.3686    0.6605   12.7848 Cl        1 <0>        -0.0407
     33 H2         -1.5915    4.6578    2.5534 H         1 <0>         0.0645
     34 H3         -1.0126    3.2025    3.4330 H         1 <0>         0.0628
     35 H4         -2.5622    3.1466    2.5262 H         1 <0>         0.0605
     36 H5         -2.5544    3.1992    0.0346 H         1 <0>         0.0652
     37 H6         -1.5642    4.6978    0.0486 H         1 <0>         0.0759
     38 H7         -1.3143    3.4867   -2.1093 H         1 <0>         0.0704
     39 H8          0.2372    3.5141   -1.2043 H         1 <0>         0.0690
     40 H9         -1.7797    1.1998   -1.2337 H         1 <0>         0.0651
     41 H10        -0.2282    1.2503   -2.1376 H         1 <0>         0.0756
     42 H11         0.0020   -0.0141    0.0025 H         1 <0>         0.0746
     43 H12         1.0193    1.4664    0.0007 H         1 <0>         0.0892
     44 H13        -2.8131    1.2107    0.5643 H         1 <0>         0.4682
     45 H14        -1.3009   -1.3088    4.4445 H         1 <0>         0.1352
     46 H15         0.3782   -0.6708    4.4636 H         1 <0>         0.1319
     47 H16        -0.5057   -0.9491    7.0135 H         1 <0>         0.4300
     48 H17        -1.8956    2.7111    6.8937 H         1 <0>         0.1697
     49 H18        -2.2690    3.6187    9.3725 H         1 <0>         0.1856
     50 H19        -1.1481   -0.8727   10.7226 H         1 <0>         0.1178
     51 H20        -0.8882   -1.4996    9.0594 H         1 <0>         0.1032
     52 H21         1.2953   -1.5406    8.0928 H         1 <0>         0.1332
     53 H22         3.7314   -1.4288    8.4286 H         1 <0>         0.1436
     54 H23         4.6468   -0.4619   10.4997 H         1 <0>         0.1460
@<TRIPOS>BOND
     1    1    2 1
     2    1   33 1
     3    1   34 1
     4    1   35 1
     5    2    3 1
     6    2    8 1
     7    2    4 1
     8    4    5 1
     9    4   36 1
    10    4   37 1
    11    5    6 1
    12    5   38 1
    13    5   39 1
    14    6    7 1
    15    6   40 1
    16    6   41 1
    17    7    8 1
    18    7   42 1
    19    7   43 1
    20    8   14 1
    21    8    9 1
    22    9   10 2
    23    9   11 am
    24   11   12 am
    25   11   15 1
    26   12   13 2
    27   12   14 am
    28   14   44 1
    29   15   16 1
    30   15   45 1
    31   15   46 1
    32   16   17 2
    33   16   18 am
    34   18   19 1
    35   18   47 1
    36   19   23 1
    37   19   20 2
    38   20   21 1
    39   20   48 1
    40   21   22 2
    41   21   49 1
    42   22   23 1
    43   23   24 1
    44   24   25 1
    45   24   50 1
    46   24   51 1
    47   25   30 ar
    48   25   26 ar
    49   26   27 ar
    50   26   52 1
    51   27   28 ar
    52   27   53 1
    53   28   29 ar
    54   28   54 1
    55   29   30 ar
    56   29   32 1
    57   30   31 1
