@<TRIPOS>MOLECULE
ZINC13396195
   55    57     0     0     0
SMALL
USER_CHARGES
(3S)-1-[4-[(5-methyl-4-propyl-thiophene-2-carbonyl)amino]phenyl]sulfonylpiperidine-3-carboxylic acid
@<TRIPOS>ATOM
      1 C1         -4.0046    8.5882    1.1874 C.3       1 <0>        -0.1532
      2 C2         -3.2090    7.4471    0.5504 C.3       1 <0>        -0.1202
      3 C3         -2.0587    7.0481    1.4770 C.3       1 <0>        -0.0627
      4 C4         -1.2750    5.9241    0.8496 C.2       1 <0>        -0.1482
      5 C5         -1.5512    4.6194    1.1743 C.2       1 <0>        -0.0506
      6 C6         -0.7882    3.6402    0.5571 C.2       1 <0>        -0.2489
      7 S1          0.3047    4.6152   -0.4616 S.3       1 <0>         0.1415
      8 C7         -0.2864    6.1905   -0.0438 C.2       1 <0>        -0.1422
      9 C8          0.1862    7.5309   -0.5450 C.3       1 <0>        -0.0770
     10 C9         -0.8572    2.1840    0.7071 C.2       1 <0>         0.6082
     11 O1         -1.6734    1.6880    1.4615 O.2       1 <0>        -0.5007
     12 N1         -0.0169    1.3942    0.0097 N.am      1 <0>        -0.6693
     13 C10        -0.1544    0.0038    0.0675 C.ar      1 <0>         0.1987
     14 C11         0.9675   -0.8107   -0.0166 C.ar      1 <0>        -0.1628
     15 C12         0.8286   -2.1834    0.0452 C.ar      1 <0>         0.0067
     16 C13        -0.4267   -2.7474    0.1810 C.ar      1 <0>        -0.6881
     17 C14        -1.5462   -1.9395    0.2597 C.ar      1 <0>         0.0012
     18 C15        -1.4138   -0.5660    0.2034 C.ar      1 <0>        -0.1433
     19 S2         -0.6000   -4.4994    0.2532 S.o2      1 <0>         2.6903
     20 O2          0.6451   -5.0124    0.7068 O.2       1 <0>        -0.9547
     21 O3         -1.8227   -4.7590    0.9293 O.2       1 <0>        -0.9635
     22 N2         -0.7953   -5.0366   -1.3010 N.pl3     1 <0>        -0.9942
     23 C16        -2.1366   -5.1566   -1.8886 C.3       1 <0>         0.1214
     24 C17        -2.1618   -4.3768   -3.2120 C.3       1 <0>        -0.1337
     25 C18        -1.0331   -4.8794   -4.1151 C.3       1 <0>        -0.0945
     26 C19         0.3154   -4.6307   -3.4355 C.3       1 <0>        -0.1407
     27 H1          0.4313   -3.5656   -3.2351 H         1 <0>         0.0713
     28 C20         0.3690   -5.4080   -2.1166 C.3       1 <0>         0.1418
     29 C21         1.4276   -5.0964   -4.3394 C.2       1 <0>         0.4684
     30 O4          2.1859   -5.9608   -3.9683 O.co2     1 <0>        -0.6375
     31 H2         -4.4071    8.2598    2.1457 H         1 <0>         0.0550
     32 H3         -3.3494    9.4453    1.3430 H         1 <0>         0.0541
     33 H4         -4.8241    8.8724    0.5273 H         1 <0>         0.0554
     34 H5         -2.8065    7.7755   -0.4078 H         1 <0>         0.0625
     35 H6         -3.8642    6.5900    0.3948 H         1 <0>         0.0637
     36 H7         -2.4612    6.7197    2.4352 H         1 <0>         0.0728
     37 H8         -1.4035    7.9052    1.6326 H         1 <0>         0.0732
     38 H9         -2.3287    4.3666    1.8800 H         1 <0>         0.1479
     39 H10         0.9815    7.9009    0.1021 H         1 <0>         0.0840
     40 H11         0.5645    7.4258   -1.5618 H         1 <0>         0.0781
     41 H12        -0.6455    8.2353   -0.5377 H         1 <0>         0.0854
     42 H13         0.6858    1.7900   -0.5292 H         1 <0>         0.4135
     43 H14         1.9477   -0.3709   -0.1268 H         1 <0>         0.1372
     44 H15         1.7009   -2.8171   -0.0164 H         1 <0>         0.1472
     45 H16        -2.5252   -2.3832    0.3650 H         1 <0>         0.1428
     46 H17        -2.2885    0.0644    0.2654 H         1 <0>         0.1426
     47 H18        -2.3609   -6.2067   -2.0758 H         1 <0>         0.0744
     48 H19        -2.8745   -4.7397   -1.2031 H         1 <0>         0.0843
     49 H20        -2.0231   -3.3141   -3.0136 H         1 <0>         0.0632
     50 H21        -3.1204   -4.5325   -3.7069 H         1 <0>         0.0699
     51 H22        -1.0643   -4.3471   -5.0658 H         1 <0>         0.0710
     52 H23        -1.1587   -5.9475   -4.2927 H         1 <0>         0.0577
     53 H24         1.2849   -5.1571   -1.5815 H         1 <0>         0.0881
     54 H25         0.3462   -6.4787   -2.3198 H         1 <0>         0.0800
     55 O5          1.5760   -4.5509   -5.5568 O.co2     1 <0>        -0.7675
@<TRIPOS>BOND
     1    1    2 1
     2    1   31 1
     3    1   32 1
     4    1   33 1
     5    2    3 1
     6    2   34 1
     7    2   35 1
     8    3    4 1
     9    3   36 1
    10    3   37 1
    11    4    8 2
    12    4    5 1
    13    5    6 2
    14    5   38 1
    15    6    7 1
    16    6   10 1
    17    7    8 1
    18    8    9 1
    19    9   39 1
    20    9   40 1
    21    9   41 1
    22   10   11 2
    23   10   12 am
    24   12   13 1
    25   12   42 1
    26   13   18 ar
    27   13   14 ar
    28   14   15 ar
    29   14   43 1
    30   15   16 ar
    31   15   44 1
    32   16   17 ar
    33   16   19 1
    34   17   18 ar
    35   17   45 1
    36   18   46 1
    37   19   20 2
    38   19   21 2
    39   19   22 1
    40   22   28 1
    41   22   23 1
    42   23   24 1
    43   23   47 1
    44   23   48 1
    45   24   25 1
    46   24   49 1
    47   24   50 1
    48   25   26 1
    49   25   51 1
    50   25   52 1
    51   26   27 1
    52   26   28 1
    53   26   29 1
    54   28   53 1
    55   28   54 1
    56   29   30 2
    57   29   55 1
