@<TRIPOS>MOLECULE
ZINC31944107
   40    42     0     0     0
SMALL
USER_CHARGES
2-[2-[(4-ethylphenoxy)methyl]phenyl]thiazole-4-carboxylic acid
@<TRIPOS>ATOM
      1 C1         -5.9566    7.0918    1.5437 C.3       1 <0>        -0.1490
      2 C2         -5.8166    6.6139    0.0970 C.3       1 <0>        -0.0811
      3 C3         -5.3618    5.1772    0.0844 C.ar      1 <0>        -0.1226
      4 C4         -6.2956    4.1576    0.0875 C.ar      1 <0>        -0.0805
      5 C5         -5.8813    2.8398    0.0760 C.ar      1 <0>        -0.1488
      6 C6         -4.5268    2.5399    0.0612 C.ar      1 <0>         0.1272
      7 C7         -3.5918    3.5647    0.0639 C.ar      1 <0>        -0.2035
      8 C8         -4.0113    4.8809    0.0692 C.ar      1 <0>        -0.0753
      9 O1         -4.1167    1.2443    0.0498 O.3       1 <0>        -0.3055
     10 C9         -2.7071    1.0102    0.0349 C.3       1 <0>         0.0909
     11 C10        -2.4444   -0.4737    0.0238 C.ar      1 <0>        -0.0758
     12 C11        -3.4998   -1.3628    0.0293 C.ar      1 <0>        -0.0979
     13 C12        -3.2603   -2.7251    0.0192 C.ar      1 <0>        -0.1115
     14 C13        -1.9627   -3.2054    0.0044 C.ar      1 <0>        -0.1159
     15 C14        -0.8991   -2.3270   -0.0066 C.ar      1 <0>        -0.0717
     16 C15        -1.1339   -0.9515    0.0085 C.ar      1 <0>         0.0129
     17 C16         0.0021   -0.0041    0.0020 C.2       1 <0>         0.0969
     18 N1          1.2967   -0.2585   -0.0117 N.2       1 <0>        -0.4171
     19 C17         2.1689    0.7389   -0.0147 C.2       1 <0>         0.0218
     20 C18         1.6953    2.0388   -0.0032 C.2       1 <0>        -0.1857
     21 S1         -0.0221    1.7813    0.0118 S.3       1 <0>         0.0031
     22 C19         3.6155    0.4689   -0.0295 C.2       1 <0>         0.5160
     23 O2          4.4061    1.3922   -0.0316 O.co2     1 <0>        -0.6272
     24 O3          4.0638   -0.8023   -0.0406 O.co2     1 <0>        -0.7284
     25 H1         -6.2886    8.1405    1.5529 H         1 <0>         0.0560
     26 H2         -4.9847    7.0104    2.0524 H         1 <0>         0.0561
     27 H3         -6.6972    6.4681    2.0658 H         1 <0>         0.0553
     28 H4         -6.7885    6.6953   -0.4117 H         1 <0>         0.0696
     29 H5         -5.0761    7.2376   -0.4252 H         1 <0>         0.0702
     30 H6         -7.3499    4.3916    0.0987 H         1 <0>         0.1265
     31 H7         -6.6111    2.0437    0.0781 H         1 <0>         0.1300
     32 H8         -2.5368    3.3338    0.0570 H         1 <0>         0.1312
     33 H9         -3.2838    5.6791    0.0661 H         1 <0>         0.1242
     34 H10        -2.2691    1.4669   -0.8649 H         1 <0>         0.0862
     35 H11        -2.2518    1.4565    0.9313 H         1 <0>         0.0862
     36 H12        -4.5148   -0.9942    0.0412 H         1 <0>         0.1362
     37 H13        -4.0897   -3.4169    0.0231 H         1 <0>         0.1266
     38 H14        -1.7823   -4.2702   -0.0035 H         1 <0>         0.1304
     39 H15         0.1132   -2.7030   -0.0231 H         1 <0>         0.1435
     40 H16         2.2470    2.9672   -0.0035 H         1 <0>         0.2006
@<TRIPOS>BOND
     1    1    2 1
     2    1   25 1
     3    1   26 1
     4    1   27 1
     5    2    3 1
     6    2   28 1
     7    2   29 1
     8    3    8 ar
     9    3    4 ar
    10    4    5 ar
    11    4   30 1
    12    5    6 ar
    13    5   31 1
    14    6    7 ar
    15    6    9 1
    16    7    8 ar
    17    7   32 1
    18    8   33 1
    19    9   10 1
    20   10   11 1
    21   10   34 1
    22   10   35 1
    23   11   16 ar
    24   11   12 ar
    25   12   13 ar
    26   12   36 1
    27   13   14 ar
    28   13   37 1
    29   14   15 ar
    30   14   38 1
    31   15   16 ar
    32   15   39 1
    33   16   17 1
    34   17   21 1
    35   17   18 2
    36   18   19 1
    37   19   20 2
    38   19   22 1
    39   20   21 1
    40   20   40 1
    41   22   23 2
    42   22   24 1
