@<TRIPOS>MOLECULE
ZINC30985900
   59    62     0     0     0
SMALL
USER_CHARGES
ethyl 3-chloro-4-[[1-[[3-(3-chlorophenyl)-1,2,4-oxadiazol-5-yl]methyl]piperidine-4-carbonyl]amino]benzoate
@<TRIPOS>ATOM
      1 C1          7.8640   11.5642   13.5268 C.3       1 <0>        -0.1565
      2 C2          6.5180   10.8781   13.2851 C.3       1 <0>         0.0612
      3 O1          6.2842   10.7604   11.8569 O.3       1 <0>        -0.3525
      4 C3          5.1338   10.1742   11.4715 C.2       1 <0>         0.5094
      5 O2          4.3474    9.7723   12.3061 O.2       1 <0>        -0.4972
      6 C4          4.8291   10.0203   10.0370 C.ar      1 <0>        -0.1221
      7 C5          5.7330   10.4817    9.0753 C.ar      1 <0>        -0.0343
      8 C6          5.4483   10.3319    7.7369 C.ar      1 <0>        -0.1242
      9 C7          4.2578    9.7312    7.3400 C.ar      1 <0>         0.1869
     10 C8          3.3551    9.2700    8.2943 C.ar      1 <0>        -0.0756
     11 C9          3.6360    9.4123    9.6355 C.ar      1 <0>        -0.0253
     12 Cl1         1.8740    8.5152    7.7938 Cl        1 <0>        -0.0504
     13 N1          3.9706    9.5857    5.9830 N.am      1 <0>        -0.6788
     14 C10         4.9645    9.3406    5.1064 C.2       1 <0>         0.5208
     15 O3          6.1169    9.3283    5.4841 O.2       1 <0>        -0.5032
     16 C11         4.6440    9.0820    3.6568 C.3       1 <0>        -0.1199
     17 C12         5.9413    8.8341    2.8821 C.3       1 <0>        -0.1293
     18 C13         5.6056    8.5121    1.4242 C.3       1 <0>        -0.0013
     19 N2          4.7469    7.3221    1.3696 N.4       1 <0>        -0.4041
     20 C14         3.4750    7.5527    2.0666 C.3       1 <0>        -0.0076
     21 C15         3.7472    7.8460    3.5437 C.3       1 <0>        -0.1408
     22 C16         4.5175    6.9017   -0.0191 C.3       1 <0>         0.1075
     23 C17         3.8461    5.5526   -0.0311 C.2       1 <0>         0.1019
     24 N3          2.5562    5.3254   -0.0292 N.2       1 <0>        -0.4257
     25 C18         2.4244    3.9797   -0.0391 C.2       1 <0>         0.2337
     26 N4          3.6301    3.4739   -0.0553 N.2       1 <0>        -0.3377
     27 O4          4.4552    4.3628   -0.0510 O.3       1 <0>         0.1179
     28 C19         1.1498    3.2193   -0.0380 C.ar      1 <0>        -0.0360
     29 C20         1.1669    1.8260   -0.0550 C.ar      1 <0>        -0.0732
     30 C21        -0.0207    1.1232   -0.0535 C.ar      1 <0>        -0.1023
     31 C22        -1.2275    1.7991   -0.0409 C.ar      1 <0>        -0.0767
     32 C23        -1.2510    3.1828   -0.0182 C.ar      1 <0>        -0.0398
     33 C24        -0.0676    3.8959   -0.0196 C.ar      1 <0>        -0.0645
     34 Cl2        -2.7696    4.0237    0.0047 Cl        1 <0>        -0.0468
     35 H1          8.0410   11.6533   14.6088 H         1 <0>         0.0857
     36 H2          7.8513   12.5664   13.0735 H         1 <0>         0.0689
     37 H3          8.6673   10.9661   13.0718 H         1 <0>         0.0686
     38 H4          6.5307    9.8759   13.7384 H         1 <0>         0.0751
     39 H5          5.7147   11.4761   13.7401 H         1 <0>         0.0754
     40 H6          6.6556   10.9518    9.3823 H         1 <0>         0.1525
     41 H7          6.1481   10.6849    6.9939 H         1 <0>         0.1573
     42 H8          2.9357    9.0544   10.3756 H         1 <0>         0.1562
     43 H9          2.9329    9.6710    5.6282 H         1 <0>         0.4401
     44 H10         4.1252    9.9637    3.2525 H         1 <0>         0.1244
     45 H11         6.5716    9.7346    2.9248 H         1 <0>         0.1275
     46 H12         6.4807    7.9874    3.3316 H         1 <0>         0.1025
     47 H13         5.0783    9.3652    0.9723 H         1 <0>         0.1371
     48 H14         6.5348    8.3190    0.8680 H         1 <0>         0.1455
     49 H15         2.9581    8.4107    1.6120 H         1 <0>         0.1407
     50 H16         2.8426    6.6567    1.9816 H         1 <0>         0.1343
     51 H17         4.2518    6.9836    4.0037 H         1 <0>         0.0986
     52 H18         2.7961    8.0343    4.0633 H         1 <0>         0.1206
     53 H19         3.8726    7.6367   -0.5229 H         1 <0>         0.1732
     54 H20         5.4807    6.8367   -0.5464 H         1 <0>         0.1736
     55 H21         2.1084    1.2969   -0.0690 H         1 <0>         0.1395
     56 H22        -0.0080    0.0433   -0.0667 H         1 <0>         0.1485
     57 H23        -2.1546    1.2451   -0.0447 H         1 <0>         0.1470
     58 H24        -0.0864    4.9756   -0.0060 H         1 <0>         0.1453
     59 H25         5.2710    6.5064    1.8892 H         1 <0>         0.4484
@<TRIPOS>BOND
     1    1    2 1
     2    1   35 1
     3    1   36 1
     4    1   37 1
     5    2    3 1
     6    2   38 1
     7    2   39 1
     8    3    4 1
     9    4    5 2
    10    4    6 1
    11    6   11 ar
    12    6    7 ar
    13    7    8 ar
    14    7   40 1
    15    8    9 ar
    16    8   41 1
    17    9   10 ar
    18    9   13 1
    19   10   11 ar
    20   10   12 1
    21   11   42 1
    22   13   14 am
    23   13   43 1
    24   14   15 2
    25   14   16 1
    26   16   21 1
    27   16   17 1
    28   16   44 1
    29   17   18 1
    30   17   45 1
    31   17   46 1
    32   18   19 1
    33   18   47 1
    34   18   48 1
    35   19   20 1
    36   19   22 1
    37   19   59 1
    38   20   21 1
    39   20   49 1
    40   20   50 1
    41   21   51 1
    42   21   52 1
    43   22   23 1
    44   22   53 1
    45   22   54 1
    46   23   27 1
    47   23   24 2
    48   24   25 1
    49   25   26 2
    50   25   28 1
    51   26   27 1
    52   28   33 ar
    53   28   29 ar
    54   29   30 ar
    55   29   55 1
    56   30   31 ar
    57   30   56 1
    58   31   32 ar
    59   31   57 1
    60   32   33 ar
    61   32   34 1
    62   33   58 1
