@<TRIPOS>MOLECULE
ZINC40911175
   57    59     0     0     0
SMALL
USER_CHARGES

@<TRIPOS>ATOM
      1 C1         -0.0184    1.5028    0.0103 C.3       1 <0>        -0.1186
      2 C2          0.0021   -0.0041    0.0020 C.ar      1 <0>        -0.0743
      3 C3          0.0057   -0.6887   -1.1989 C.ar      1 <0>        -0.1246
      4 C4          0.0245   -2.0709   -1.2065 C.ar      1 <0>        -0.0893
      5 C5          0.0400   -2.7685   -0.0132 C.ar      1 <0>        -0.1034
      6 C6          0.0373   -2.0839    1.1877 C.ar      1 <0>        -0.0893
      7 C7          0.0229   -0.7016    1.1953 C.ar      1 <0>        -0.1246
      8 C8          0.0595   -4.2753   -0.0215 C.3       1 <0>         0.0996
      9 O1          1.4127   -4.7342   -0.0315 O.3       1 <0>        -0.2944
     10 C9          1.6082   -6.0794   -0.0399 C.ar      1 <0>         0.1245
     11 C10         0.5177   -6.9370   -0.0443 C.ar      1 <0>        -0.1810
     12 C11         0.7102   -8.3024   -0.0532 C.ar      1 <0>        -0.0666
     13 C12         2.0060   -8.8250   -0.0579 C.ar      1 <0>        -0.0610
     14 C13         3.1040   -7.9609   -0.0535 C.ar      1 <0>        -0.1424
     15 C14         2.9031   -6.5933   -0.0499 C.ar      1 <0>         0.0956
     16 O2          3.9695   -5.7494   -0.0507 O.3       1 <0>        -0.3033
     17 C15         5.2683   -6.3452   -0.0612 C.3       1 <0>         0.0245
     18 C16         2.2142  -10.2844   -0.0670 C.2       1 <0>         0.1212
     19 N1          1.1931  -11.0856   -0.0707 N.2       1 <0>        -0.2264
     20 N2          1.3910  -12.4725   -0.0793 N.am      1 <0>        -0.5829
     21 C17         0.3306  -13.3045   -0.0832 C.2       1 <0>         0.5317
     22 O3         -0.7951  -12.8523   -0.0791 O.2       1 <0>        -0.4684
     23 C18         0.5434  -14.7963   -0.0925 C.3       1 <0>         0.0470
     24 O4         -0.7231  -15.4581   -0.0950 O.3       1 <0>        -0.2753
     25 C19        -0.7091  -16.8172   -0.1033 C.ar      1 <0>         0.1476
     26 C20         0.4986  -17.4997   -0.1031 C.ar      1 <0>        -0.2008
     27 C21         0.5103  -18.8810   -0.1115 C.ar      1 <0>        -0.0645
     28 C22        -0.6805  -19.5840   -0.1202 C.ar      1 <0>        -0.1148
     29 C23        -1.8857  -18.9069   -0.1204 C.ar      1 <0>        -0.0527
     30 C24        -1.9031  -17.5247   -0.1062 C.ar      1 <0>        -0.1172
     31 Br1        -3.5519  -16.5989   -0.0980 Br        1 <0>        -0.0277
     32 C25        -0.6643  -21.0909   -0.1299 C.3       1 <0>        -0.1121
     33 H1          1.0042    1.8801    0.0026 H         1 <0>         0.0730
     34 H2         -0.5455    1.8639   -0.8728 H         1 <0>         0.0680
     35 H3         -0.5286    1.8543    0.9071 H         1 <0>         0.0680
     36 H4         -0.0064   -0.1436   -2.1312 H         1 <0>         0.1252
     37 H5          0.0266   -2.6057   -2.1448 H         1 <0>         0.1245
     38 H6          0.0491   -2.6289    2.1200 H         1 <0>         0.1244
     39 H7          0.0245   -0.1667    2.1335 H         1 <0>         0.1252
     40 H8         -0.4447   -4.6501    0.8693 H         1 <0>         0.0734
     41 H9         -0.4546   -4.6404   -0.9106 H         1 <0>         0.0734
     42 H10        -0.4844   -6.5343   -0.0403 H         1 <0>         0.1408
     43 H11        -0.1405   -8.9678   -0.0563 H         1 <0>         0.1414
     44 H12         4.1074   -8.3606   -0.0567 H         1 <0>         0.1412
     45 H13         6.0271   -5.5626   -0.0608 H         1 <0>         0.1018
     46 H14         5.3891   -6.9689    0.8245 H         1 <0>         0.0556
     47 H15         5.3795   -6.9586   -0.9554 H         1 <0>         0.0556
     48 H16         3.2164  -10.6869   -0.0706 H         1 <0>         0.1219
     49 H17         2.2911  -12.8340   -0.0826 H         1 <0>         0.3870
     50 H18         1.1024  -15.0780   -0.9848 H         1 <0>         0.1005
     51 H19         1.1045  -15.0888    0.7951 H         1 <0>         0.1005
     52 H20         1.4291  -16.9514   -0.0967 H         1 <0>         0.1365
     53 H21         1.4505  -19.4125   -0.1118 H         1 <0>         0.1337
     54 H22        -2.8144  -19.4582   -0.1275 H         1 <0>         0.1409
     55 H23        -0.6639  -21.4609    0.8954 H         1 <0>         0.0729
     56 H24        -1.5485  -21.4604   -0.6492 H         1 <0>         0.0693
     57 H25         0.2313  -21.4413   -0.6429 H         1 <0>         0.0691
@<TRIPOS>BOND
     1    1    2 1
     2    1   33 1
     3    1   34 1
     4    1   35 1
     5    2    7 ar
     6    2    3 ar
     7    3    4 ar
     8    3   36 1
     9    4    5 ar
    10    4   37 1
    11    5    6 ar
    12    5    8 1
    13    6    7 ar
    14    6   38 1
    15    7   39 1
    16    8    9 1
    17    8   40 1
    18    8   41 1
    19    9   10 1
    20   10   15 ar
    21   10   11 ar
    22   11   12 ar
    23   11   42 1
    24   12   13 ar
    25   12   43 1
    26   13   14 ar
    27   13   18 1
    28   14   15 ar
    29   14   44 1
    30   15   16 1
    31   16   17 1
    32   17   45 1
    33   17   46 1
    34   17   47 1
    35   18   19 2
    36   18   48 1
    37   19   20 1
    38   20   21 am
    39   20   49 1
    40   21   22 2
    41   21   23 1
    42   23   24 1
    43   23   50 1
    44   23   51 1
    45   24   25 1
    46   25   30 ar
    47   25   26 ar
    48   26   27 ar
    49   26   52 1
    50   27   28 ar
    51   27   53 1
    52   28   29 ar
    53   28   32 1
    54   29   30 ar
    55   29   54 1
    56   30   31 1
    57   32   55 1
    58   32   56 1
    59   32   57 1
