@<TRIPOS>MOLECULE
ZINC39668055
   56    58     0     0     0
SMALL
USER_CHARGES

@<TRIPOS>ATOM
      1 C1          0.2722    1.4937   -0.2304 C.3       1 <0>        -0.1944
      2 C2          0.1797   -0.0319   -0.1601 C.3       1 <0>         0.0759
      3 H1         -0.8633   -0.3474   -0.1838 H         1 <0>         0.1002
      4 C3          0.9409   -0.6554   -1.3074 C.2       1 <0>        -0.0730
      5 C4          2.1172   -1.1007   -0.8588 C.2       1 <0>        -0.1914
      6 C5          2.2244   -0.8060    0.6198 C.3       1 <0>         0.0943
      7 H2          2.6272   -1.6699    1.1484 H         1 <0>         0.1085
      8 N1          0.8381   -0.5293    1.0704 N.3       1 <0>        -0.4844
      9 C6          0.8197    0.4914    2.1267 C.3       1 <0>         0.0613
     10 C7         -0.5184    0.4731    2.8197 C.ar      1 <0>        -0.0784
     11 C8         -1.5046    1.3649    2.4411 C.ar      1 <0>        -0.0934
     12 C9         -2.7322    1.3487    3.0756 C.ar      1 <0>        -0.1551
     13 C10        -2.9742    0.4389    4.0909 C.ar      1 <0>         0.0915
     14 C11        -1.9857   -0.4537    4.4693 C.ar      1 <0>        -0.1527
     15 C12        -0.7607   -0.4392    3.8297 C.ar      1 <0>        -0.0660
     16 F1         -4.1737    0.4225    4.7122 F         1 <0>        -0.1441
     17 C13         3.1129    0.4177    0.8526 C.3       1 <0>        -0.1832
     18 C14         3.1373   -1.7672   -1.6677 C.2       1 <0>         0.4273
     19 O1          2.9463   -1.9542   -2.8512 O.2       1 <0>        -0.4390
     20 C15         4.4255   -2.2216   -1.0313 C.3       1 <0>        -0.1556
     21 S1          5.4756   -3.0061   -2.2853 S.3       1 <0>        -0.0186
     22 C16         6.9226   -3.4758   -1.3963 C.ar      1 <0>         0.3077
     23 N2          6.9978   -3.2141   -0.0990 N.ar      1 <0>        -0.6228
     24 C17         8.0742   -3.5552    0.5984 C.ar      1 <0>         0.4456
     25 O2          8.1471   -3.2864    1.9246 O.3       1 <0>        -0.6922
     26 C18         9.1288   -4.1946   -0.0524 C.ar      1 <0>        -0.2699
     27 C19         9.0116   -4.4496   -1.4058 C.ar      1 <0>         0.1566
     28 N3          7.9068   -4.0869   -2.0399 N.ar      1 <0>        -0.5846
     29 C20        10.1263   -5.1378   -2.1506 C.3       1 <0>        -0.0908
     30 C21        10.3689   -4.5981    0.7029 C.3       1 <0>        -0.0169
     31 C22        10.1932   -6.0153    1.2518 C.3       1 <0>        -0.1642
     32 C23        11.4332   -6.4188    2.0071 C.2       1 <0>         0.4943
     33 O3         12.3707   -5.6446    2.0979 O.co2     1 <0>        -0.7034
     34 O4         11.4990   -7.5195    2.5274 O.co2     1 <0>        -0.7218
     35 H3          1.3099    1.7879   -0.3882 H         1 <0>         0.0688
     36 H4         -0.3382    1.8571   -1.0571 H         1 <0>         0.0673
     37 H5         -0.0890    1.9230    0.7041 H         1 <0>         0.0810
     38 H6          0.5898   -0.7295   -2.3261 H         1 <0>         0.1486
     39 H7          1.6067    0.2795    2.8505 H         1 <0>         0.0936
     40 H8          0.9869    1.4740    1.6854 H         1 <0>         0.0736
     41 H9         -1.3154    2.0747    1.6494 H         1 <0>         0.1341
     42 H10        -3.5023    2.0457    2.7799 H         1 <0>         0.1320
     43 H11        -2.1732   -1.1636    5.2613 H         1 <0>         0.1345
     44 H12         0.0090   -1.1384    4.1217 H         1 <0>         0.1368
     45 H13         2.6248    1.3037    0.4466 H         1 <0>         0.0616
     46 H14         3.2755    0.5504    1.9222 H         1 <0>         0.0701
     47 H15         4.0715    0.2707    0.3549 H         1 <0>         0.0738
     48 H16         4.9450   -1.3616   -0.6086 H         1 <0>         0.1226
     49 H17         4.2067   -2.9388   -0.2402 H         1 <0>         0.1243
     50 H18         9.9711   -6.2163   -2.1216 H         1 <0>         0.0656
     51 H19        10.1339   -4.7996   -3.1868 H         1 <0>         0.0594
     52 H20        11.0802   -4.8953   -1.6823 H         1 <0>         0.0741
     53 H21        11.2275   -4.5722    0.0319 H         1 <0>         0.0495
     54 H22        10.5324   -3.9061    1.5290 H         1 <0>         0.0634
     55 H23         9.3345   -6.0412    1.9228 H         1 <0>         0.0540
     56 H24        10.0297   -6.7073    0.4257 H         1 <0>         0.0440
@<TRIPOS>BOND
     1    1    2 1
     2    1   35 1
     3    1   36 1
     4    1   37 1
     5    2    3 1
     6    2    8 1
     7    2    4 1
     8    4    5 2
     9    4   38 1
    10    5    6 1
    11    5   18 1
    12    6    7 1
    13    6    8 1
    14    6   17 1
    15    8    9 1
    16    9   10 1
    17    9   39 1
    18    9   40 1
    19   10   15 ar
    20   10   11 ar
    21   11   12 ar
    22   11   41 1
    23   12   13 ar
    24   12   42 1
    25   13   14 ar
    26   13   16 1
    27   14   15 ar
    28   14   43 1
    29   15   44 1
    30   17   45 1
    31   17   46 1
    32   17   47 1
    33   18   19 2
    34   18   20 1
    35   20   21 1
    36   20   48 1
    37   20   49 1
    38   21   22 1
    39   22   28 ar
    40   22   23 ar
    41   23   24 ar
    42   24   25 1
    43   24   26 ar
    44   26   27 ar
    45   26   30 1
    46   27   28 ar
    47   27   29 1
    48   29   50 1
    49   29   51 1
    50   29   52 1
    51   30   31 1
    52   30   53 1
    53   30   54 1
    54   31   32 1
    55   31   55 1
    56   31   56 1
    57   32   33 2
    58   32   34 1
