@<TRIPOS>MOLECULE
ZINC13414381
   53    56     0     0     0
SMALL
USER_CHARGES
4-fluoro-3-[[4-isobutyl-5-(4-methoxyphenyl)-1,2,4-triazol-3-yl]sulfanylmethyl]benzothiophene-2-carboxylic acid
@<TRIPOS>ATOM
      1 C1          1.0373    0.9503   -1.3200 C.3       1 <0>        -0.1428
      2 C2          0.6733    2.3521   -0.8266 C.3       1 <0>        -0.1127
      3 C3          1.9531    3.1399   -0.5392 C.3       1 <0>        -0.1462
      4 C4         -0.1566    2.2426    0.4541 C.3       1 <0>         0.0980
      5 N1         -0.6056    3.5765    0.8606 N.pl3     1 <0>        -0.4576
      6 C5         -0.0175    4.4047    1.7885 C.2       1 <0>         0.2104
      7 N2         -0.7413    5.4987    1.8418 N.2       1 <0>        -0.2681
      8 N3         -1.7321    5.4094    1.0283 N.2       1 <0>        -0.2881
      9 C6         -1.6991    4.2550    0.4018 C.2       1 <0>         0.1824
     10 S1         -2.8501    3.6880   -0.8059 S.3       1 <0>         0.0133
     11 C7         -3.9696    5.1090   -0.8647 C.3       1 <0>        -0.0470
     12 C8         -5.0677    4.8424   -1.8618 C.2       1 <0>        -0.1148
     13 C9         -4.9047    5.2203   -3.2057 C.ar      1 <0>        -0.0972
     14 C10        -3.7828    5.8471   -3.8127 C.ar      1 <0>         0.1364
     15 C11        -3.7884    6.1426   -5.1507 C.ar      1 <0>        -0.1637
     16 C12        -4.8785    5.8369   -5.9561 C.ar      1 <0>        -0.0832
     17 C13        -5.9830    5.2226   -5.4022 C.ar      1 <0>        -0.0819
     18 C14        -5.9937    4.9189   -4.0574 C.ar      1 <0>        -0.1194
     19 S2         -7.1696    4.1540   -2.9692 S.3       1 <0>         0.1013
     20 C15        -6.2202    4.2408   -1.4608 C.2       1 <0>        -0.0832
     21 C16        -6.5914    3.7778   -0.1185 C.2       1 <0>         0.5209
     22 O1         -5.8167    3.9167    0.8083 O.co2     1 <0>        -0.5858
     23 F1         -2.7034    6.1594   -3.0627 F         1 <0>        -0.1294
     24 C17         1.2012    4.1183    2.5744 C.ar      1 <0>        -0.0363
     25 C18         1.4797    2.8128    2.9832 C.ar      1 <0>        -0.0694
     26 C19         2.6197    2.5492    3.7120 C.ar      1 <0>        -0.2034
     27 C20         3.4854    3.5816    4.0482 C.ar      1 <0>         0.1355
     28 C21         3.2090    4.8824    3.6484 C.ar      1 <0>        -0.1469
     29 C22         2.0738    5.1536    2.9149 C.ar      1 <0>        -0.0384
     30 O2          4.6056    3.3183    4.7707 O.3       1 <0>        -0.3157
     31 C23         4.8289    1.9586    5.1490 C.3       1 <0>         0.0256
     32 H1          1.6170    0.4348   -0.5543 H         1 <0>         0.0572
     33 H2          0.1256    0.3892   -1.5248 H         1 <0>         0.0614
     34 H3          1.6285    1.0284   -2.2323 H         1 <0>         0.0635
     35 H4          0.0936    2.8677   -1.5923 H         1 <0>         0.0840
     36 H5          2.5443    3.2179   -1.4515 H         1 <0>         0.0590
     37 H6          1.6938    4.1385   -0.1877 H         1 <0>         0.0549
     38 H7          2.5328    2.6243    0.2265 H         1 <0>         0.0567
     39 H8         -1.0234    1.6072    0.2721 H         1 <0>         0.0993
     40 H9          0.4530    1.8074    1.2460 H         1 <0>         0.1034
     41 H10        -4.4053    5.2694    0.1214 H         1 <0>         0.1349
     42 H11        -3.4138    5.9972   -1.1652 H         1 <0>         0.1011
     43 H12        -2.9263    6.6234   -5.5889 H         1 <0>         0.1346
     44 H13        -4.8613    6.0782   -7.0086 H         1 <0>         0.1385
     45 H14        -6.8356    4.9811   -6.0195 H         1 <0>         0.1345
     46 H15         0.8050    2.0099    2.7253 H         1 <0>         0.1292
     47 H16         2.8380    1.5389    4.0251 H         1 <0>         0.1331
     48 H17         3.8846    5.6827    3.9122 H         1 <0>         0.1376
     49 H18         1.8595    6.1655    2.6044 H         1 <0>         0.1412
     50 H19         5.7547    1.8876    5.7199 H         1 <0>         0.1003
     51 H20         3.9970    1.6105    5.7613 H         1 <0>         0.0570
     52 H21         4.9053    1.3404    4.2546 H         1 <0>         0.0563
     53 O3         -7.7916    3.1983    0.0870 O.co2     1 <0>        -0.7301
@<TRIPOS>BOND
     1    1    2 1
     2    1   32 1
     3    1   33 1
     4    1   34 1
     5    2    3 1
     6    2    4 1
     7    2   35 1
     8    3   36 1
     9    3   37 1
    10    3   38 1
    11    4    5 1
    12    4   39 1
    13    4   40 1
    14    5    9 1
    15    5    6 1
    16    6    7 2
    17    6   24 1
    18    7    8 1
    19    8    9 2
    20    9   10 1
    21   10   11 1
    22   11   12 1
    23   11   41 1
    24   11   42 1
    25   12   20 2
    26   12   13 1
    27   13   18 ar
    28   13   14 ar
    29   14   15 ar
    30   14   23 1
    31   15   16 ar
    32   15   43 1
    33   16   17 ar
    34   16   44 1
    35   17   18 ar
    36   17   45 1
    37   18   19 1
    38   19   20 1
    39   20   21 1
    40   21   22 2
    41   21   53 1
    42   24   29 ar
    43   24   25 ar
    44   25   26 ar
    45   25   46 1
    46   26   27 ar
    47   26   47 1
    48   27   28 ar
    49   27   30 1
    50   28   29 ar
    51   28   48 1
    52   29   49 1
    53   30   31 1
    54   31   50 1
    55   31   51 1
    56   31   52 1
