@<TRIPOS>MOLECULE
ZINC10125857
   51    53     0     0     0
SMALL
USER_CHARGES
3-acetylamino-N-[5-[(4-chlorophenyl)methyl]thiazol-2-yl]-3-(p-tolyl)propanamide
@<TRIPOS>ATOM
      1 C1          1.7371   13.9906    0.3313 C.3       1 <0>        -0.1164
      2 C2          1.0719   12.6403    0.2595 C.ar      1 <0>        -0.0850
      3 C3         -0.1155   12.4906   -0.4323 C.ar      1 <0>        -0.1174
      4 C4         -0.7255   11.2519   -0.4985 C.ar      1 <0>        -0.0994
      5 C5         -0.1483   10.1629    0.1274 C.ar      1 <0>        -0.0899
      6 C6          1.0362   10.3137    0.8241 C.ar      1 <0>        -0.1070
      7 C7          1.6489   11.5514    0.8859 C.ar      1 <0>        -0.1167
      8 C8         -0.8134    8.8125    0.0556 C.3       1 <0>         0.2099
      9 H1         -1.5604    8.7330    0.8454 H         1 <0>         0.1092
     10 C9          0.2380    7.7158    0.2358 C.3       1 <0>        -0.1590
     11 C10        -0.4416    6.3718    0.2870 C.2       1 <0>         0.5136
     12 O1         -1.6483    6.2983    0.1889 O.2       1 <0>        -0.4678
     13 N1          0.2913    5.2514    0.4416 N.am      1 <0>        -0.6224
     14 C11        -0.3356    4.0117    0.4888 C.2       1 <0>         0.3045
     15 N2         -1.6208    3.7293    0.4015 N.2       1 <0>        -0.5097
     16 C12        -2.0523    2.4846    0.4601 C.2       1 <0>         0.0634
     17 C13        -1.1433    1.4928    0.6254 C.2       1 <0>        -0.1950
     18 S1          0.3725    2.4375    0.6784 S.3       1 <0>         0.0571
     19 C14        -1.3527    0.0041    0.7292 C.3       1 <0>         0.0146
     20 C15        -1.3006   -0.6077   -0.6471 C.ar      1 <0>        -0.0797
     21 C16        -2.4589   -0.7352   -1.3907 C.ar      1 <0>        -0.0967
     22 C17        -2.4109   -1.2910   -2.6553 C.ar      1 <0>        -0.1080
     23 C18        -1.2051   -1.7302   -3.1723 C.ar      1 <0>        -0.0349
     24 C19        -0.0471   -1.6074   -2.4253 C.ar      1 <0>        -0.1080
     25 C20        -0.0954   -1.0463   -1.1631 C.ar      1 <0>        -0.0989
     26 Cl1        -1.1451   -2.4343   -4.7579 Cl        1 <0>        -0.0686
     27 N3         -1.4629    8.6569   -1.2483 N.am      1 <0>        -0.7193
     28 C21        -0.7440    8.7946   -2.3800 C.2       1 <0>         0.5120
     29 O2          0.4568    8.9541   -2.3199 O.2       1 <0>        -0.5365
     30 C22        -1.4322    8.7505   -3.7199 C.3       1 <0>        -0.1738
     31 H2          1.3715   14.5297    1.2052 H         1 <0>         0.0706
     32 H3          2.8164   13.8602    0.4102 H         1 <0>         0.0665
     33 H4          1.5046   14.5585   -0.5695 H         1 <0>         0.0659
     34 H5         -0.5665   13.3414   -0.9213 H         1 <0>         0.1205
     35 H6         -1.6531   11.1350   -1.0390 H         1 <0>         0.1180
     36 H7          1.4848    9.4638    1.3168 H         1 <0>         0.1229
     37 H8          2.5763   11.6684    1.4267 H         1 <0>         0.1223
     38 H9          0.7822    7.8834    1.1653 H         1 <0>         0.1115
     39 H10         0.9346    7.7391   -0.6022 H         1 <0>         0.1255
     40 H11         1.2564    5.3102    0.5201 H         1 <0>         0.4270
     41 H12        -3.1060    2.2609    0.3820 H         1 <0>         0.1708
     42 H13        -0.5691   -0.4306    1.3499 H         1 <0>         0.0930
     43 H14        -2.3252   -0.1956    1.1790 H         1 <0>         0.1039
     44 H15        -3.4009   -0.3964   -0.9853 H         1 <0>         0.1338
     45 H16        -3.3152   -1.3866   -3.2380 H         1 <0>         0.1349
     46 H17         0.8946   -1.9497   -2.8285 H         1 <0>         0.1346
     47 H18         0.8085   -0.9501   -0.5800 H         1 <0>         0.1314
     48 H19        -2.4103    8.4546   -1.2972 H         1 <0>         0.4089
     49 H20        -2.5021    8.6012   -3.5741 H         1 <0>         0.0759
     50 H21        -1.2648    9.6906   -4.2455 H         1 <0>         0.0952
     51 H22        -1.0275    7.9277   -4.3093 H         1 <0>         0.0928
@<TRIPOS>BOND
     1    1    2 1
     2    1   31 1
     3    1   32 1
     4    1   33 1
     5    2    7 ar
     6    2    3 ar
     7    3    4 ar
     8    3   34 1
     9    4    5 ar
    10    4   35 1
    11    5    6 ar
    12    5    8 1
    13    6    7 ar
    14    6   36 1
    15    7   37 1
    16    8    9 1
    17    8   10 1
    18    8   27 1
    19   10   11 1
    20   10   38 1
    21   10   39 1
    22   11   12 2
    23   11   13 am
    24   13   14 1
    25   13   40 1
    26   14   18 1
    27   14   15 2
    28   15   16 1
    29   16   17 2
    30   16   41 1
    31   17   18 1
    32   17   19 1
    33   19   20 1
    34   19   42 1
    35   19   43 1
    36   20   25 ar
    37   20   21 ar
    38   21   22 ar
    39   21   44 1
    40   22   23 ar
    41   22   45 1
    42   23   24 ar
    43   23   26 1
    44   24   25 ar
    45   24   46 1
    46   25   47 1
    47   27   28 am
    48   27   48 1
    49   28   29 2
    50   28   30 1
    51   30   49 1
    52   30   50 1
    53   30   51 1
