@<TRIPOS>MOLECULE
ZINC28108848
   56    59     0     0     0
SMALL
USER_CHARGES
3-(3,5-dichlorophenyl)-1-[[4-[4-(3-pyridyl)phenyl]-4-piperidyl]methyl]urea
@<TRIPOS>ATOM
      1 C1          1.5077    9.9640   -7.4356 C.ar      1 <0>        -0.1666
      2 C2          0.6579    9.7799   -6.3581 C.ar      1 <0>        -0.0632
      3 C3          1.1137   10.1360   -5.0862 C.ar      1 <0>        -0.1154
      4 C4          2.3962   10.6644   -4.9534 C.ar      1 <0>         0.1145
      5 N1          3.1709   10.8169   -6.0077 N.ar      1 <0>        -0.4796
      6 C5          2.7684   10.4895   -7.2205 C.ar      1 <0>         0.1088
      7 C6          0.2438    9.9601   -3.8969 C.ar      1 <0>        -0.0207
      8 C7          0.7072   10.3181   -2.6326 C.ar      1 <0>        -0.1043
      9 C8         -0.1060   10.1520   -1.5298 C.ar      1 <0>        -0.1182
     10 C9         -1.3788    9.6311   -1.6781 C.ar      1 <0>        -0.0903
     11 C10        -1.8418    9.2687   -2.9301 C.ar      1 <0>        -0.0989
     12 C11        -1.0392    9.4359   -4.0405 C.ar      1 <0>        -0.1025
     13 C12        -2.2620    9.4520   -0.4702 C.3       1 <0>        -0.0316
     14 C13        -1.5647   10.0282    0.7652 C.3       1 <0>        -0.1434
     15 C14        -2.4917    9.8971    1.9758 C.3       1 <0>        -0.0066
     16 N2         -3.7432   10.6202    1.7161 N.4       1 <0>        -0.5342
     17 C15        -4.4540   10.0541    0.5626 C.3       1 <0>        -0.0107
     18 C16        -3.5855   10.1898   -0.6902 C.3       1 <0>        -0.1351
     19 C17        -2.5368    7.9625   -0.2541 C.3       1 <0>         0.1464
     20 N3         -1.2662    7.2470   -0.1127 N.am      1 <0>        -0.7504
     21 C18        -1.2572    5.9029   -0.0129 C.2       1 <0>         0.7094
     22 O1         -2.3035    5.2842   -0.0403 O.2       1 <0>        -0.5693
     23 N4         -0.0883    5.2447    0.1172 N.am      1 <0>        -0.6932
     24 C19        -0.0689    3.8454    0.1117 C.ar      1 <0>         0.1935
     25 C20        -0.9849    3.1403   -0.6575 C.ar      1 <0>        -0.1127
     26 C21        -0.9639    1.7581   -0.6609 C.ar      1 <0>        -0.0028
     27 C22        -0.0310    1.0772    0.1013 C.ar      1 <0>        -0.1185
     28 C23         0.8796    1.7776    0.8728 C.ar      1 <0>        -0.0022
     29 C24         0.8662    3.1599    0.8756 C.ar      1 <0>        -0.1375
     30 Cl1         2.0437    0.9196    1.8333 Cl        1 <0>        -0.0445
     31 Cl2        -2.1091    0.8756   -1.6218 Cl        1 <0>        -0.0454
     32 H1          1.1891    9.7004   -8.4333 H         1 <0>         0.1425
     33 H2         -0.3320    9.3711   -6.4972 H         1 <0>         0.1369
     34 H3          2.7597   10.9477   -3.9767 H         1 <0>         0.1566
     35 H4          3.4340   10.6345   -8.0587 H         1 <0>         0.1624
     36 H5          1.7009   10.7246   -2.5157 H         1 <0>         0.1316
     37 H6          0.2523   10.4288   -0.5493 H         1 <0>         0.1289
     38 H7         -2.8348    8.8584   -3.0396 H         1 <0>         0.1245
     39 H8         -1.4033    9.1567   -5.0182 H         1 <0>         0.1293
     40 H9         -0.6334    9.4737    0.9526 H         1 <0>         0.1123
     41 H10        -1.3313   11.0893    0.5931 H         1 <0>         0.1008
     42 H11        -2.7130    8.8346    2.1548 H         1 <0>         0.1295
     43 H12        -1.9996   10.3235    2.8624 H         1 <0>         0.1366
     44 H13        -4.3961   10.5517    2.5987 H         1 <0>         0.4569
     45 H14        -4.6656    8.9907    0.7481 H         1 <0>         0.1301
     46 H15        -5.3998   10.5954    0.4129 H         1 <0>         0.1386
     47 H16        -3.3843   11.2534   -0.8855 H         1 <0>         0.0999
     48 H17        -4.1107    9.7518   -1.5518 H         1 <0>         0.1166
     49 H18        -3.1364    7.8289    0.6584 H         1 <0>         0.0646
     50 H19        -3.0888    7.5624   -1.1174 H         1 <0>         0.0824
     51 H20        -0.3196    7.8067   -0.0880 H         1 <0>         0.4174
     52 H21         0.8504    5.8074    0.2277 H         1 <0>         0.4345
     53 H22        -1.7134    3.6712   -1.2523 H         1 <0>         0.1508
     54 H23        -0.0164   -0.0027    0.0976 H         1 <0>         0.1484
     55 H24         1.5799    3.7061    1.4745 H         1 <0>         0.1431
     56 H25        -3.5196   11.6766    1.5065 H         1 <0>         0.4502
@<TRIPOS>BOND
     1    1    6 ar
     2    1    2 ar
     3    1   32 1
     4    2    3 ar
     5    2   33 1
     6    3    4 ar
     7    3    7 1
     8    4    5 ar
     9    4   34 1
    10    5    6 ar
    11    6   35 1
    12    7   12 ar
    13    7    8 ar
    14    8    9 ar
    15    8   36 1
    16    9   10 ar
    17    9   37 1
    18   10   11 ar
    19   10   13 1
    20   11   12 ar
    21   11   38 1
    22   12   39 1
    23   13   18 1
    24   13   14 1
    25   13   19 1
    26   14   15 1
    27   14   40 1
    28   14   41 1
    29   15   16 1
    30   15   42 1
    31   15   43 1
    32   16   17 1
    33   16   44 1
    34   16   56 1
    35   17   18 1
    36   17   45 1
    37   17   46 1
    38   18   47 1
    39   18   48 1
    40   19   20 1
    41   19   49 1
    42   19   50 1
    43   20   21 am
    44   20   51 1
    45   21   22 2
    46   21   23 am
    47   23   24 1
    48   23   52 1
    49   24   29 ar
    50   24   25 ar
    51   25   26 ar
    52   25   53 1
    53   26   27 ar
    54   26   31 1
    55   27   28 ar
    56   27   54 1
    57   28   29 ar
    58   28   30 1
    59   29   55 1
