@<TRIPOS>MOLECULE
ZINC37440780
   37    40     0     0     0
SMALL
USER_CHARGES

@<TRIPOS>ATOM
      1 C1          1.2428    0.9295   -0.4766 C.3       1 <0>        -0.1063
      2 C2          0.4056   -0.2990   -0.2298 C.ar      1 <0>        -0.1482
      3 C3         -0.4973   -0.7222   -1.1911 C.ar      1 <0>        -0.0473
      4 C4         -1.2699   -1.8463   -0.9769 C.ar      1 <0>        -0.1984
      5 C5         -1.1453   -2.5604    0.2072 C.ar      1 <0>         0.2621
      6 C6         -0.2321   -2.1344    1.1822 C.ar      1 <0>        -0.1191
      7 C7          0.5463   -0.9996    0.9494 C.ar      1 <0>        -0.0376
      8 C8         -0.0905   -2.8857    2.4458 C.2       1 <0>         0.3548
      9 N1          0.0535   -4.1859    2.5384 N.2       1 <0>        -0.4901
     10 C9          0.1554   -4.5412    3.8426 C.ar      1 <0>         0.0605
     11 C10         0.3189   -5.7687    4.4931 C.ar      1 <0>        -0.0569
     12 C11         0.3905   -5.8097    5.8675 C.ar      1 <0>        -0.0408
     13 C12         0.3013   -4.6414    6.6132 C.ar      1 <0>        -0.0960
     14 C13         0.1396   -3.4235    5.9874 C.ar      1 <0>        -0.0926
     15 C14         0.0662   -3.3621    4.6030 C.ar      1 <0>         0.0540
     16 N2         -0.0837   -2.3290    3.6967 N.pl3     1 <0>        -0.4577
     17 C15        -0.2140   -0.9050    4.0152 C.3       1 <0>         0.0510
     18 C16        -1.2001   -0.5151    5.1181 C.3       1 <0>        -0.1686
     19 C17        -1.5327   -0.2181    3.6545 C.3       1 <0>        -0.1578
     20 Cl1         0.5934   -7.3333    6.6745 Cl        1 <0>        -0.0627
     21 N3         -1.9237   -3.6938    0.4255 N.pl3     1 <0>        -0.8635
     22 H1          2.1721    0.6431   -0.9690 H         1 <0>         0.0661
     23 H2          0.6926    1.6222   -1.1135 H         1 <0>         0.0651
     24 H3          1.4691    1.4119    0.4743 H         1 <0>         0.0615
     25 H4         -0.5978   -0.1695   -2.1135 H         1 <0>         0.1266
     26 H5         -1.9721   -2.1700   -1.7308 H         1 <0>         0.1282
     27 H6          1.2552   -0.6683    1.6938 H         1 <0>         0.1196
     28 H7          0.3882   -6.6811    3.9194 H         1 <0>         0.1410
     29 H8          0.3586   -4.6872    7.6907 H         1 <0>         0.1416
     30 H9          0.0703   -2.5190    6.5735 H         1 <0>         0.1329
     31 H10         0.7001   -0.3179    3.9263 H         1 <0>         0.1348
     32 H11        -1.7520   -1.3181    5.6067 H         1 <0>         0.1042
     33 H12        -0.9348    0.3287    5.7552 H         1 <0>         0.1158
     34 H13        -1.4862    0.8210    3.3287 H         1 <0>         0.1154
     35 H14        -2.3034   -0.8257    3.1803 H         1 <0>         0.1018
     36 H15        -2.6040   -3.9463   -0.2181 H         1 <0>         0.3998
     37 H16        -1.7857   -4.2310    1.2213 H         1 <0>         0.4069
@<TRIPOS>BOND
     1    1    2 1
     2    1   22 1
     3    1   23 1
     4    1   24 1
     5    2    7 ar
     6    2    3 ar
     7    3    4 ar
     8    3   25 1
     9    4    5 ar
    10    4   26 1
    11    5    6 ar
    12    5   21 1
    13    6    7 ar
    14    6    8 1
    15    7   27 1
    16    8   16 1
    17    8    9 2
    18    9   10 1
    19   10   15 ar
    20   10   11 ar
    21   11   12 ar
    22   11   28 1
    23   12   13 ar
    24   12   20 1
    25   13   14 ar
    26   13   29 1
    27   14   15 ar
    28   14   30 1
    29   15   16 1
    30   16   17 1
    31   17   19 1
    32   17   18 1
    33   17   31 1
    34   18   19 1
    35   18   32 1
    36   18   33 1
    37   19   34 1
    38   19   35 1
    39   21   36 1
    40   21   37 1
