@<TRIPOS>MOLECULE
ZINC13002080
   49    50     0     0     0
SMALL
USER_CHARGES
N-[4-chloro-3-(trifluoromethyl)phenyl]-2-[[2-[(1-cyanocyclopentyl)amino]-2-oxo-ethyl]-methyl-amino]acetamide
@<TRIPOS>ATOM
      1 C1          2.5026    0.1089   -0.8034 C.3       1 <0>        -0.0607
      2 C2          1.2770    1.9610    0.1610 C.3       1 <0>        -0.0238
      3 C3         -0.0267    1.2053    0.1747 C.2       1 <0>         0.5022
      4 O1         -0.0284    0.0014    0.3217 O.2       1 <0>        -0.5010
      5 N1         -1.1906    1.8666    0.0178 N.am      1 <0>        -0.6445
      6 C4         -2.3914    1.1550   -0.0860 C.ar      1 <0>         0.1270
      7 C5         -2.4118   -0.0887   -0.7039 C.ar      1 <0>        -0.0715
      8 C6         -3.5968   -0.7910   -0.8003 C.ar      1 <0>        -0.0880
      9 C7         -4.7657   -0.2516   -0.2921 C.ar      1 <0>         0.0047
     10 C8         -4.7491    0.9895    0.3193 C.ar      1 <0>        -0.1547
     11 C9         -3.5653    1.6937    0.4234 C.ar      1 <0>        -0.0741
     12 C10        -6.0235    1.5734    0.8724 C.3       1 <0>         0.5098
     13 F1         -5.7563    2.8249    1.4376 F         1 <0>        -0.1728
     14 F2         -6.9569    1.7175   -0.1597 F         1 <0>        -0.1637
     15 F3         -6.5405    0.7197    1.8528 F         1 <0>        -0.1639
     16 Cl1        -6.2551   -1.1340   -0.4214 Cl        1 <0>        -0.0222
     17 C11         3.6525    1.7359    0.5724 C.3       1 <0>        -0.0259
     18 C12         4.7161    0.7559    0.9960 C.2       1 <0>         0.4992
     19 O2          4.4489   -0.4228    1.0971 O.2       1 <0>        -0.5066
     20 N2          5.9641    1.1893    1.2625 N.am      1 <0>        -0.6940
     21 C13         6.9980    0.2366    1.6743 C.3       1 <0>         0.2764
     22 C14         6.6070   -0.4215    3.0136 C.3       1 <0>        -0.1191
     23 C15         7.9498   -0.5666    3.7718 C.3       1 <0>        -0.1302
     24 C16         8.6968    0.7374    3.3968 C.3       1 <0>        -0.1245
     25 C17         8.3268    0.9734    1.9179 C.3       1 <0>        -0.1231
     26 C18         7.1754   -0.7936    0.6380 C.1       1 <0>         0.1897
     27 N3          7.3123   -1.5887   -0.1618 N.1       1 <0>        -0.3851
     28 H1          2.6783    0.6867   -1.7108 H         1 <0>         0.1218
     29 H2          3.3344   -0.5769   -0.6425 H         1 <0>         0.1383
     30 H3          1.5782   -0.4593   -0.9078 H         1 <0>         0.1384
     31 H4          1.3888    2.4756   -0.7933 H         1 <0>         0.1706
     32 H5          1.2822    2.6912    0.9703 H         1 <0>         0.1667
     33 H6         -1.1961    2.8358   -0.0231 H         1 <0>         0.4252
     34 H7         -1.5008   -0.5081   -1.1045 H         1 <0>         0.1518
     35 H8         -3.6124   -1.7600   -1.2771 H         1 <0>         0.1573
     36 H9         -3.5530    2.6625    0.9004 H         1 <0>         0.1564
     37 H10         3.9611    2.2319   -0.3478 H         1 <0>         0.1674
     38 H11         3.5111    2.4800    1.3563 H         1 <0>         0.1661
     39 H12         6.1777    2.1320    1.1817 H         1 <0>         0.4200
     40 H13         5.9230    0.2205    3.5687 H         1 <0>         0.0897
     41 H14         6.1585   -1.3998    2.8414 H         1 <0>         0.0869
     42 H15         8.4988   -1.4407    3.4214 H         1 <0>         0.0763
     43 H16         7.7851   -0.6216    4.8479 H         1 <0>         0.0860
     44 H17         9.7734    0.6047    3.5042 H         1 <0>         0.0841
     45 H18         8.3503    1.5664    4.0138 H         1 <0>         0.0796
     46 H19         9.1031    0.5675    1.2694 H         1 <0>         0.0914
     47 H20         8.2023    2.0398    1.7298 H         1 <0>         0.0927
     48 N4          2.3848    1.0043    0.3666 N.4       1 <0>        -0.3712
     49 H21         2.1868    0.4390    1.2006 H         1 <0>         0.4453
@<TRIPOS>BOND
     1    1   28 1
     2    1   29 1
     3    1   30 1
     4    1   48 1
     5    2    3 1
     6    2   31 1
     7    2   32 1
     8    2   48 1
     9    3    4 2
    10    3    5 am
    11    5    6 1
    12    5   33 1
    13    6   11 ar
    14    6    7 ar
    15    7    8 ar
    16    7   34 1
    17    8    9 ar
    18    8   35 1
    19    9   10 ar
    20    9   16 1
    21   10   11 ar
    22   10   12 1
    23   11   36 1
    24   12   13 1
    25   12   14 1
    26   12   15 1
    27   17   18 1
    28   17   37 1
    29   17   38 1
    30   17   48 1
    31   18   19 2
    32   18   20 am
    33   20   21 1
    34   20   39 1
    35   21   25 1
    36   21   22 1
    37   21   26 1
    38   22   23 1
    39   22   40 1
    40   22   41 1
    41   23   24 1
    42   23   42 1
    43   23   43 1
    44   24   25 1
    45   24   44 1
    46   24   45 1
    47   25   46 1
    48   25   47 1
    49   26   27 3
    50   48   49 1
