@<TRIPOS>MOLECULE
ZINC36027968
   75    78     0     0     0
SMALL
USER_CHARGES

@<TRIPOS>ATOM
      1 C1          0.3418    1.3745    0.3780 C.3       1 <0>        -0.1554
      2 C2          0.3183   -0.1531    0.2970 C.3       1 <0>        -0.1331
      3 C3          0.9572   -0.7406    1.5569 C.3       1 <0>        -0.0959
      4 H1          1.9579   -0.3275    1.6833 H         1 <0>         0.0983
      5 C4          0.1017   -0.3867    2.7751 C.3       1 <0>        -0.1703
      6 C5          1.0469   -2.2620    1.4214 C.3       1 <0>         0.0013
      7 H2          0.0538   -2.6890    1.2818 H         1 <0>         0.1796
      8 C6          1.9486   -2.6357    0.2649 C.2       1 <0>         0.5189
      9 O1          1.9398   -2.1240   -0.8346 O.2       1 <0>        -0.4327
     10 N1          2.7643   -3.6339    0.6634 N.am      1 <0>        -0.6143
     11 C7          2.4669   -3.9821    2.0555 C.3       1 <0>         0.2850
     12 N2          1.6981   -2.8494    2.6172 N.4       1 <0>        -0.5136
     13 C8          1.6234   -5.2544    2.1131 C.3       1 <0>        -0.1587
     14 C9          2.4105   -6.4140    1.4934 C.3       1 <0>         0.0886
     15 N3          3.7138   -6.5122    2.1646 N.pl3     1 <0>        -0.5515
     16 C10         4.5684   -5.3188    2.2287 C.3       1 <0>         0.0489
     17 C11         3.7631   -4.1683    2.8420 C.3       1 <0>        -0.1621
     18 C12         4.1182   -7.6759    2.7112 C.2       1 <0>         0.5597
     19 S1          3.1731   -9.0894    2.5117 S.2       1 <0>        -0.4879
     20 N4          5.2665   -7.7268    3.4148 N.pl3     1 <0>        -0.6978
     21 C13         5.2950   -7.2804    4.7417 C.ar      1 <0>         0.1589
     22 C14         4.1663   -6.7016    5.3054 C.ar      1 <0>        -0.1590
     23 C15         4.1971   -6.2625    6.6148 C.ar      1 <0>        -0.0870
     24 C16         5.3506   -6.3986    7.3652 C.ar      1 <0>        -0.1183
     25 C17         6.4776   -6.9745    6.8083 C.ar      1 <0>        -0.1055
     26 C18         6.4524   -7.4211    5.4996 C.ar      1 <0>         0.0596
     27 F1          7.5518   -7.9885    4.9570 F         1 <0>        -0.1320
     28 C19         3.7886   -4.2716   -0.1674 C.3       1 <0>         0.1098
     29 C20         5.0984   -3.4892   -0.0525 C.3       1 <0>        -0.1004
     30 C21         6.1219   -4.0832   -0.9855 C.ar      1 <0>        -0.1017
     31 C22         6.9513   -5.0974   -0.5440 C.ar      1 <0>        -0.1129
     32 C23         7.8918   -5.6455   -1.3961 C.ar      1 <0>        -0.1691
     33 C24         8.0045   -5.1789   -2.6959 C.ar      1 <0>         0.1133
     34 C25         7.1695   -4.1584   -3.1404 C.ar      1 <0>         0.1089
     35 C26         6.2256   -3.6166   -2.2827 C.ar      1 <0>        -0.1628
     36 O2          7.2762   -3.6970   -4.4152 O.3       1 <0>        -0.3012
     37 C27         6.3863   -2.6481   -4.8022 C.3       1 <0>         0.0251
     38 O3          8.9296   -5.7168   -3.5352 O.3       1 <0>        -0.3017
     39 C28         9.7526   -6.7604   -3.0105 C.3       1 <0>         0.0235
     40 H3          1.3732    1.7183    0.4565 H         1 <0>         0.0576
     41 H4         -0.1133    1.7931   -0.5196 H         1 <0>         0.0683
     42 H5         -0.2176    1.7005    1.2549 H         1 <0>         0.0603
     43 H6         -0.7131   -0.4970    0.2184 H         1 <0>         0.0747
     44 H7          0.8777   -0.4791   -0.5799 H         1 <0>         0.0994
     45 H8          0.0378    0.6972    2.8716 H         1 <0>         0.0927
     46 H9         -0.8990   -0.7998    2.6487 H         1 <0>         0.0768
     47 H10         0.5569   -0.8052    3.6727 H         1 <0>         0.0526
     48 H11         2.3161   -2.1803    3.0514 H         1 <0>         0.4382
     49 H12         1.3884   -5.4882    3.1515 H         1 <0>         0.1143
     50 H13         0.6990   -5.1034    1.5558 H         1 <0>         0.1177
     51 H14         1.8586   -7.3440    1.6290 H         1 <0>         0.1533
     52 H15         2.5602   -6.2270    0.4301 H         1 <0>         0.1040
     53 H16         5.4401   -5.5264    2.8494 H         1 <0>         0.1182
     54 H17         4.8897   -5.0449    1.2237 H         1 <0>         0.1313
     55 H18         4.3496   -3.2506    2.7992 H         1 <0>         0.1173
     56 H19         3.5281   -4.4020    3.8804 H         1 <0>         0.1171
     57 H20         6.0733   -8.0727    3.0021 H         1 <0>         0.4322
     58 H21         3.2647   -6.5942    4.7205 H         1 <0>         0.1229
     59 H22         3.3189   -5.8118    7.0531 H         1 <0>         0.1339
     60 H23         5.3714   -6.0539    8.3885 H         1 <0>         0.1395
     61 H24         7.3770   -7.0793    7.3970 H         1 <0>         0.1464
     62 H25         3.9461   -5.2955    0.1718 H         1 <0>         0.1103
     63 H26         3.4602   -4.2797   -1.2067 H         1 <0>         0.1122
     64 H27         4.9238   -2.4472   -0.3205 H         1 <0>         0.0881
     65 H28         5.4657   -3.5441    0.9723 H         1 <0>         0.0821
     66 H29         6.8644   -5.4620    0.4689 H         1 <0>         0.1192
     67 H30         8.5390   -6.4372   -1.0485 H         1 <0>         0.1399
     68 H31         5.5737   -2.8271   -2.6263 H         1 <0>         0.1372
     69 H32         6.5767   -2.3745   -5.8400 H         1 <0>         0.1064
     70 H33         5.3562   -2.9892   -4.6995 H         1 <0>         0.0555
     71 H34         6.5473   -1.7805   -4.1623 H         1 <0>         0.0558
     72 H35        10.4448   -7.0996   -3.7812 H         1 <0>         0.1070
     73 H36        10.3157   -6.3844   -2.1563 H         1 <0>         0.0577
     74 H37         9.1251   -7.5935   -2.6936 H         1 <0>         0.0574
     75 H38         1.0065   -3.1772    3.2748 H         1 <0>         0.4486
@<TRIPOS>BOND
     1    1    2 1
     2    1   40 1
     3    1   41 1
     4    1   42 1
     5    2    3 1
     6    2   43 1
     7    2   44 1
     8    3    4 1
     9    3    5 1
    10    3    6 1
    11    5   45 1
    12    5   46 1
    13    5   47 1
    14    6    7 1
    15    6   12 1
    16    6    8 1
    17    8    9 2
    18    8   10 am
    19   10   11 1
    20   10   28 1
    21   11   17 1
    22   11   12 1
    23   11   13 1
    24   12   48 1
    25   12   75 1
    26   13   14 1
    27   13   49 1
    28   13   50 1
    29   14   15 1
    30   14   51 1
    31   14   52 1
    32   15   16 1
    33   15   18 1
    34   16   17 1
    35   16   53 1
    36   16   54 1
    37   17   55 1
    38   17   56 1
    39   18   19 2
    40   18   20 1
    41   20   21 1
    42   20   57 1
    43   21   26 ar
    44   21   22 ar
    45   22   23 ar
    46   22   58 1
    47   23   24 ar
    48   23   59 1
    49   24   25 ar
    50   24   60 1
    51   25   26 ar
    52   25   61 1
    53   26   27 1
    54   28   29 1
    55   28   62 1
    56   28   63 1
    57   29   30 1
    58   29   64 1
    59   29   65 1
    60   30   35 ar
    61   30   31 ar
    62   31   32 ar
    63   31   66 1
    64   32   33 ar
    65   32   67 1
    66   33   34 ar
    67   33   38 1
    68   34   35 ar
    69   34   36 1
    70   35   68 1
    71   36   37 1
    72   37   69 1
    73   37   70 1
    74   37   71 1
    75   38   39 1
    76   39   72 1
    77   39   73 1
    78   39   74 1
