@<TRIPOS>MOLECULE
ZINC41183193
   38    39     0     0     0
SMALL
USER_CHARGES

@<TRIPOS>ATOM
      1 C1         -0.0184    1.5028    0.0103 C.3       1 <0>        -0.1177
      2 C2          0.0021   -0.0041    0.0020 C.ar      1 <0>        -0.0612
      3 C3          0.0057   -0.6888   -1.1991 C.ar      1 <0>        -0.1194
      4 C4          0.0245   -2.0707   -1.2067 C.ar      1 <0>        -0.1092
      5 C5          0.0400   -2.7685   -0.0132 C.ar      1 <0>        -0.1212
      6 C6          0.0373   -2.0840    1.1875 C.ar      1 <0>        -0.1132
      7 C7          0.0229   -0.7015    1.1951 C.ar      1 <0>        -0.1292
      8 C8          0.0252    0.0449    2.5043 C.3       1 <0>         0.2238
      9 H1         -0.6477    0.8997    2.4364 H         1 <0>         0.1228
     10 C9          1.4210    0.5270    2.8052 C.2       1 <0>         0.0749
     11 N1          1.8984    1.7433    2.7169 N.2       1 <0>        -0.5010
     12 C10         3.1535    2.0111    3.0176 C.2       1 <0>         0.0814
     13 C11         3.9250    0.9696    3.4218 C.2       1 <0>        -0.2336
     14 S1          2.7424   -0.3659    3.3433 S.3       1 <0>         0.1052
     15 C12         3.7069    3.4092    2.9169 C.3       1 <0>         0.0069
     16 C13         5.2090    3.3852    3.2070 C.3       1 <0>        -0.1456
     17 C14         3.4685    3.9516    1.5063 C.3       1 <0>        -0.1343
     18 C15         3.0051    4.3100    3.9351 C.3       1 <0>        -0.1352
     19 N2         -0.4262   -0.8494    3.5787 N.3       1 <0>        -0.8332
     20 H2          1.0042    1.8801    0.0026 H         1 <0>         0.0752
     21 H3         -0.5455    1.8639   -0.8728 H         1 <0>         0.0661
     22 H4         -0.5286    1.8543    0.9071 H         1 <0>         0.0718
     23 H5         -0.0064   -0.1437   -2.1314 H         1 <0>         0.1246
     24 H6          0.0266   -2.6056   -2.1449 H         1 <0>         0.1245
     25 H7          0.0540   -3.8484   -0.0191 H         1 <0>         0.1250
     26 H8          0.0491   -2.6290    2.1199 H         1 <0>         0.1202
     27 H9          4.9647    0.9539    3.7135 H         1 <0>         0.1948
     28 H10         5.7089    2.7434    2.4816 H         1 <0>         0.0589
     29 H11         5.6092    4.3965    3.1342 H         1 <0>         0.0652
     30 H12         5.3788    2.9988    4.2120 H         1 <0>         0.0594
     31 H13         2.3984    3.9687    1.2996 H         1 <0>         0.0645
     32 H14         3.8688    4.9629    1.4334 H         1 <0>         0.0589
     33 H15         3.9685    3.3098    0.7809 H         1 <0>         0.0511
     34 H16         3.1749    3.9236    4.9400 H         1 <0>         0.0528
     35 H17         3.4054    5.3213    3.8623 H         1 <0>         0.0601
     36 H18         1.9350    4.3271    3.7284 H         1 <0>         0.0627
     37 H19        -1.3829   -1.1353    3.4332 H         1 <0>         0.3593
     38 H20         0.1818   -1.6504    3.6618 H         1 <0>         0.3437
@<TRIPOS>BOND
     1    1    2 1
     2    1   20 1
     3    1   21 1
     4    1   22 1
     5    2    7 ar
     6    2    3 ar
     7    3    4 ar
     8    3   23 1
     9    4    5 ar
    10    4   24 1
    11    5    6 ar
    12    5   25 1
    13    6    7 ar
    14    6   26 1
    15    7    8 1
    16    8    9 1
    17    8   10 1
    18    8   19 1
    19   10   14 1
    20   10   11 2
    21   11   12 1
    22   12   13 2
    23   12   15 1
    24   13   14 1
    25   13   27 1
    26   15   16 1
    27   15   17 1
    28   15   18 1
    29   16   28 1
    30   16   29 1
    31   16   30 1
    32   17   31 1
    33   17   32 1
    34   17   33 1
    35   18   34 1
    36   18   35 1
    37   18   36 1
    38   19   37 1
    39   19   38 1
