@<TRIPOS>MOLECULE
ZINC20386614
   67    70     0     0     0
SMALL
USER_CHARGES
1-(4-bromo-3-methyl-phenyl)-3-[(1R)-4-methyl-1-(6-methyl-2-pyrrol-1-yl-5,7-dihydro-4H-thieno[5,4-c]pyridin-3-yl)pentyl]urea
@<TRIPOS>ATOM
      1 C1         -4.7348   -3.7844    9.2995 C.3       1 <0>        -0.1256
      2 C2         -3.5672   -3.6846    8.3520 C.ar      1 <0>        -0.0335
      3 C3         -3.3094   -2.4959    7.6973 C.ar      1 <0>        -0.1451
      4 C4         -2.2333   -2.4046    6.8248 C.ar      1 <0>         0.1825
      5 C5         -1.4222   -3.5110    6.6085 C.ar      1 <0>        -0.1234
      6 C6         -1.6810   -4.6952    7.2699 C.ar      1 <0>        -0.0654
      7 C7         -2.7542   -4.7835    8.1390 C.ar      1 <0>        -0.1098
      8 Br1        -3.1098   -6.4089    9.0375 Br        1 <0>        -0.0424
      9 N1         -1.9698   -1.2012    6.1601 N.am      1 <0>        -0.6956
     10 C8         -0.6976   -0.8383    5.9024 C.2       1 <0>         0.7075
     11 O1          0.2164   -1.5938    6.1709 O.2       1 <0>        -0.5607
     12 N2         -0.4387    0.3622    5.3470 N.am      1 <0>        -0.7496
     13 C9          0.9441    0.7567    5.0669 C.3       1 <0>         0.2055
     14 H1          1.5776   -0.1311    5.2098 H         1 <0>         0.1242
     15 C10         1.3553    1.8837    6.0165 C.3       1 <0>        -0.1235
     16 C11         1.3670    1.3605    7.4542 C.3       1 <0>        -0.1088
     17 C12         1.7781    2.4875    8.4037 C.3       1 <0>        -0.0969
     18 C13         0.7140    3.5866    8.3816 C.3       1 <0>        -0.1473
     19 C14         1.9109    1.9347    9.8241 C.3       1 <0>        -0.1517
     20 C15         1.0509    1.2361    3.6422 C.2       1 <0>        -0.1323
     21 C16         0.1599    2.1902    3.1577 C.2       1 <0>        -0.0747
     22 C17         0.3176    2.5715    1.8596 C.2       1 <0>        -0.2520
     23 S1          1.7006    1.6162    1.3018 S.3       1 <0>         0.1782
     24 C18         2.0175    0.7380    2.8254 C.2       1 <0>         0.1040
     25 N3          3.0035   -0.2152    3.1052 N.pl3     1 <0>        -0.3797
     26 C19         4.3466   -0.0474    2.9258 C.2       1 <0>        -0.0185
     27 C20         4.9680   -1.1815    3.3101 C.2       1 <0>        -0.1669
     28 C21         3.9737   -2.0859    3.7331 C.2       1 <0>        -0.1698
     29 C22         2.7815   -1.4693    3.5974 C.2       1 <0>        -0.0011
     30 C23        -0.5060    3.5681    1.1119 C.3       1 <0>         0.1001
     31 N4         -1.7363    3.8224    1.8861 N.4       1 <0>        -0.3985
     32 C24        -1.4152    4.0966    3.2936 C.3       1 <0>        -0.0022
     33 C25        -0.9565    2.8137    3.9917 C.3       1 <0>        -0.1038
     34 C26        -2.5099    4.9243    1.2984 C.3       1 <0>        -0.0463
     35 H2         -5.2591   -2.8182    9.3384 H         1 <0>         0.0706
     36 H3         -4.3704   -4.0445   10.3043 H         1 <0>         0.0813
     37 H4         -5.4271   -4.5633    8.9474 H         1 <0>         0.0812
     38 H5         -3.9447   -1.6385    7.8637 H         1 <0>         0.1317
     39 H6         -0.5873   -3.4440    5.9266 H         1 <0>         0.1468
     40 H7         -1.0481   -5.5546    7.1052 H         1 <0>         0.1366
     41 H8         -2.8010   -0.5518    5.8481 H         1 <0>         0.4245
     42 H9         -1.2656    1.0457    5.1040 H         1 <0>         0.4004
     43 H10         2.3605    2.2409    5.7481 H         1 <0>         0.0761
     44 H11         0.6374    2.7130    5.9340 H         1 <0>         0.0680
     45 H12         0.3618    1.0033    7.7226 H         1 <0>         0.0627
     46 H13         2.0850    0.5312    7.5368 H         1 <0>         0.0679
     47 H14         2.7433    2.9050    8.0810 H         1 <0>         0.0695
     48 H15         1.0096    4.3969    9.0643 H         1 <0>         0.0572
     49 H16        -0.2512    3.1690    8.7043 H         1 <0>         0.0535
     50 H17         0.6186    3.9840    7.3604 H         1 <0>         0.0479
     51 H18         2.2065    2.7450   10.5068 H         1 <0>         0.0574
     52 H19         2.6760    1.1445    9.8400 H         1 <0>         0.0572
     53 H20         0.9457    1.5172   10.1468 H         1 <0>         0.0542
     54 H21         4.8284    0.8407    2.5445 H         1 <0>         0.1686
     55 H22         6.0323   -1.3643    3.2926 H         1 <0>         0.1507
     56 H23         4.1363   -3.0888    4.0993 H         1 <0>         0.1504
     57 H24         1.8178   -1.8943    3.8364 H         1 <0>         0.1686
     58 H25         0.0654    4.5004    0.9928 H         1 <0>         0.1451
     59 H26        -0.7596    3.1643    0.1206 H         1 <0>         0.1476
     60 H27        -0.6091    4.8432    3.3470 H         1 <0>         0.1341
     61 H28        -2.3087    4.4845    3.8047 H         1 <0>         0.1430
     62 H29        -1.7946    2.1056    4.0703 H         1 <0>         0.1049
     63 H30        -0.5769    3.0456    4.9977 H         1 <0>         0.1360
     64 H31        -3.4195    5.0921    1.8938 H         1 <0>         0.1298
     65 H32        -2.7897    4.6662    0.2663 H         1 <0>         0.1287
     66 H33        -1.8998    5.8396    1.2950 H         1 <0>         0.1227
     67 H34        -2.3627    2.9189    1.8494 H         1 <0>         0.4485
@<TRIPOS>BOND
     1    1    2 1
     2    1   35 1
     3    1   36 1
     4    1   37 1
     5    2    7 ar
     6    2    3 ar
     7    3    4 ar
     8    3   38 1
     9    4    5 ar
    10    4    9 1
    11    5    6 ar
    12    5   39 1
    13    6    7 ar
    14    6   40 1
    15    7    8 1
    16    9   10 am
    17    9   41 1
    18   10   11 2
    19   10   12 am
    20   12   13 1
    21   12   42 1
    22   13   14 1
    23   13   15 1
    24   13   20 1
    25   15   16 1
    26   15   43 1
    27   15   44 1
    28   16   17 1
    29   16   45 1
    30   16   46 1
    31   17   18 1
    32   17   19 1
    33   17   47 1
    34   18   48 1
    35   18   49 1
    36   18   50 1
    37   19   51 1
    38   19   52 1
    39   19   53 1
    40   20   24 2
    41   20   21 1
    42   21   33 1
    43   21   22 2
    44   22   23 1
    45   22   30 1
    46   23   24 1
    47   24   25 1
    48   25   29 1
    49   25   26 1
    50   26   27 2
    51   26   54 1
    52   27   28 1
    53   27   55 1
    54   28   29 2
    55   28   56 1
    56   29   57 1
    57   30   31 1
    58   30   58 1
    59   30   59 1
    60   31   32 1
    61   31   34 1
    62   31   67 1
    63   32   33 1
    64   32   60 1
    65   32   61 1
    66   33   62 1
    67   33   63 1
    68   34   64 1
    69   34   65 1
    70   34   66 1
