@<TRIPOS>MOLECULE
ZINC19913465
   63    69     0     0     0
SMALL
USER_CHARGES

@<TRIPOS>ATOM
      1 C1         -0.0167    1.3781    0.0096 C.ar      1 <0>        -0.1085
      2 C2          1.1709    2.0855    0.0021 C.ar      1 <0>        -0.1137
      3 C3          2.3773    1.4107   -0.0130 C.ar      1 <0>        -0.1059
      4 C4          2.3960    0.0285   -0.0201 C.ar      1 <0>        -0.1083
      5 C5          1.2084   -0.6789   -0.0117 C.ar      1 <0>        -0.0969
      6 C6          0.0021   -0.0041    0.0020 C.ar      1 <0>        -0.1165
      7 C7          3.7112   -0.7071   -0.0376 C.3       1 <0>         0.1544
      8 H1          4.5148   -0.0623    0.3181 H         1 <0>         0.1015
      9 C8          4.0217   -1.2297   -1.4542 C.3       1 <0>        -0.1263
     10 C9          4.0827   -2.7308   -1.2835 C.2       1 <0>         0.1426
     11 N1          3.8602   -3.0332   -0.0507 N.2       1 <0>        -0.2414
     12 N2          3.6308   -1.9308    0.7758 N.pl3     1 <0>        -0.4623
     13 C10         3.3681   -1.9793    2.1452 C.ar      1 <0>         0.2761
     14 C11         3.1501   -0.8042    2.8548 C.ar      1 <0>        -0.1687
     15 C12         2.8905   -0.8561    4.2099 C.ar      1 <0>        -0.0312
     16 C13         2.8476   -2.0753    4.8614 C.ar      1 <0>        -0.2077
     17 C14         3.0645   -3.2467    4.1588 C.ar      1 <0>        -0.0605
     18 C15         3.3181   -3.2031    2.8022 C.ar      1 <0>        -0.1604
     19 C16         2.5644   -2.1276    6.3406 C.3       1 <0>         0.4414
     20 H2          2.0817   -1.2028    6.6567 H         1 <0>         0.1494
     21 N3          1.6892   -3.2756    6.6411 N.pl3     1 <0>        -0.7351
     22 C17         2.2756   -4.5289    6.7424 C.cat     1 <0>         0.7676
     23 N4          3.3710   -4.6337    7.6005 N.pl3     1 <0>        -0.6036
     24 C18         4.1852   -3.5061    7.6614 C.2       1 <0>         0.4558
     25 N5          3.8184   -2.3115    7.0804 N.pl3     1 <0>        -0.5112
     26 C19         4.8177   -1.4155    7.3305 C.ar      1 <0>         0.0905
     27 C20         4.9914   -0.0766    7.0012 C.ar      1 <0>        -0.1136
     28 C21         6.1598    0.5325    7.4297 C.ar      1 <0>        -0.0770
     29 C22         7.1203   -0.1507    8.1553 C.ar      1 <0>        -0.1214
     30 C23         6.9715   -1.4830    8.4958 C.ar      1 <0>        -0.0445
     31 C24         5.7988   -2.1191    8.0738 C.ar      1 <0>         0.0516
     32 N6          5.3506   -3.3837    8.2362 N.2       1 <0>        -0.4476
     33 N7          1.8274   -5.5527    6.0729 N.pl3     1 <0>        -0.7081
     34 C25         4.3545   -3.6994   -2.3616 C.ar      1 <0>        -0.0413
     35 C26         4.5871   -3.2523   -3.6646 C.ar      1 <0>        -0.0872
     36 C27         4.8406   -4.1641   -4.6680 C.ar      1 <0>        -0.1185
     37 C28         4.8644   -5.5187   -4.3866 C.ar      1 <0>        -0.0968
     38 C29         4.6349   -5.9688   -3.0984 C.ar      1 <0>        -0.1223
     39 C30         4.3863   -5.0681   -2.0837 C.ar      1 <0>        -0.0814
     40 H3         -0.9591    1.9053    0.0259 H         1 <0>         0.1265
     41 H4          1.1563    3.1654    0.0076 H         1 <0>         0.1286
     42 H5          3.3051    1.9634   -0.0196 H         1 <0>         0.1263
     43 H6          1.2231   -1.7588   -0.0176 H         1 <0>         0.1140
     44 H7         -0.9258   -0.5567    0.0082 H         1 <0>         0.1233
     45 H8          3.2251   -0.9556   -2.1459 H         1 <0>         0.1104
     46 H9          4.9804   -0.8451   -1.8020 H         1 <0>         0.1113
     47 H10         3.1841    0.1483    2.3469 H         1 <0>         0.1366
     48 H11         2.7210    0.0566    4.7619 H         1 <0>         0.1346
     49 H12         3.0309   -4.1969    4.6710 H         1 <0>         0.0983
     50 H13         3.4823   -4.1186    2.2531 H         1 <0>         0.1373
     51 H14         3.5518   -5.4343    8.1175 H         1 <0>         0.4668
     52 H15         4.2481    0.4655    6.4355 H         1 <0>         0.1355
     53 H16         6.3260    1.5725    7.1904 H         1 <0>         0.1377
     54 H17         8.0132    0.3722    8.4646 H         1 <0>         0.1383
     55 H18         7.7264   -2.0086    9.0618 H         1 <0>         0.1476
     56 H19         1.0637   -5.4503    5.4837 H         1 <0>         0.4561
     57 H20         4.5681   -2.1954   -3.8857 H         1 <0>         0.1293
     58 H21         5.0205   -3.8200   -5.6757 H         1 <0>         0.1322
     59 H22         5.0627   -6.2282   -5.1764 H         1 <0>         0.1295
     60 H23         4.6547   -7.0275   -2.8861 H         1 <0>         0.1292
     61 H24         4.2118   -5.4205   -1.0778 H         1 <0>         0.1282
     62 H25         0.7341   -3.1583    6.7636 H         1 <0>         0.4580
     63 H26         2.2575   -6.4174    6.1635 H         1 <0>         0.4512
@<TRIPOS>BOND
     1    1    6 ar
     2    1    2 ar
     3    1   40 1
     4    2    3 ar
     5    2   41 1
     6    3    4 ar
     7    3   42 1
     8    4    5 ar
     9    4    7 1
    10    5    6 ar
    11    5   43 1
    12    6   44 1
    13    7    8 1
    14    7   12 1
    15    7    9 1
    16    9   10 1
    17    9   45 1
    18    9   46 1
    19   10   11 2
    20   10   34 1
    21   11   12 1
    22   12   13 1
    23   13   18 ar
    24   13   14 ar
    25   14   15 ar
    26   14   47 1
    27   15   16 ar
    28   15   48 1
    29   16   17 ar
    30   16   19 1
    31   17   18 ar
    32   17   49 1
    33   18   50 1
    34   19   20 1
    35   19   25 1
    36   19   21 1
    37   21   22 1
    38   21   62 1
    39   22   23 1
    40   22   33 2
    41   23   24 1
    42   23   51 1
    43   24   32 2
    44   24   25 1
    45   25   26 1
    46   26   31 ar
    47   26   27 ar
    48   27   28 ar
    49   27   52 1
    50   28   29 ar
    51   28   53 1
    52   29   30 ar
    53   29   54 1
    54   30   31 ar
    55   30   55 1
    56   31   32 1
    57   33   56 1
    58   33   63 1
    59   34   39 ar
    60   34   35 ar
    61   35   36 ar
    62   35   57 1
    63   36   37 ar
    64   36   58 1
    65   37   38 ar
    66   37   59 1
    67   38   39 ar
    68   38   60 1
    69   39   61 1
