@<TRIPOS>MOLECULE
ZINC54929838
   33    34     0     0     0
SMALL
USER_CHARGES

@<TRIPOS>ATOM
      1 C1         -0.0187    1.5258    0.0104 C.3       1 <0>        -0.1527
      2 C2          0.0021   -0.0041    0.0020 C.3       1 <0>        -0.0988
      3 C3          0.7182   -0.4975   -1.2568 C.3       1 <0>        -0.1478
      4 C4          0.7421   -0.5109    1.2415 C.3       1 <0>        -0.1132
      5 C5         -0.0416   -0.1236    2.4973 C.3       1 <0>         0.0841
      6 H1         -0.2124    0.9529    2.5048 H         1 <0>         0.0515
      7 C6          0.7501   -0.5269    3.7416 C.3       1 <0>        -0.0742
      8 C7         -0.1093   -0.3728    4.9701 C.ar      1 <0>        -0.0849
      9 C8         -1.4810   -0.2662    4.8850 C.ar      1 <0>        -0.0458
     10 C9         -2.2339   -0.1318    6.0419 C.ar      1 <0>        -0.0965
     11 C10        -1.6175   -0.0994    7.2780 C.ar      1 <0>        -0.0668
     12 C11        -0.2414   -0.2024    7.3643 C.ar      1 <0>        -0.1274
     13 C12         0.5109   -0.3395    6.2122 C.ar      1 <0>         0.1051
     14 F1          1.8555   -0.4413    6.2952 F         1 <0>        -0.1295
     15 Br1        -2.6540    0.0862    8.8487 Br        1 <0>        -0.0328
     16 C13        -2.1987   -0.2848    3.5609 C.3       1 <0>         0.0967
     17 N1         -1.3329   -0.8293    2.5115 N.3       1 <0>        -0.6802
     18 H2          1.0039    1.9031    0.0027 H         1 <0>         0.0569
     19 H3         -0.5459    1.8868   -0.8726 H         1 <0>         0.0556
     20 H4         -0.5289    1.8773    0.9072 H         1 <0>         0.0522
     21 H5         -1.0205   -0.3814    0.0098 H         1 <0>         0.0692
     22 H6          1.7408   -0.1202   -1.2645 H         1 <0>         0.0553
     23 H7          0.7330   -1.5874   -1.2628 H         1 <0>         0.0565
     24 H8          0.1910   -0.1364   -2.1398 H         1 <0>         0.0552
     25 H9          0.8346   -1.5958    1.1912 H         1 <0>         0.0762
     26 H10         1.7350   -0.0630    1.2804 H         1 <0>         0.0726
     27 H11         1.0657   -1.5660    3.6487 H         1 <0>         0.0920
     28 H12         1.6298    0.1102    3.8331 H         1 <0>         0.0838
     29 H13        -3.3089   -0.0515    5.9762 H         1 <0>         0.1407
     30 H14         0.2444   -0.1760    8.3285 H         1 <0>         0.1466
     31 H15        -3.0938   -0.9011    3.6454 H         1 <0>         0.0968
     32 H16        -2.4867    0.7319    3.2935 H         1 <0>         0.0525
     33 H17        -1.7811   -0.7813    1.6088 H         1 <0>         0.3513
@<TRIPOS>BOND
     1    1    2 1
     2    1   18 1
     3    1   19 1
     4    1   20 1
     5    2    3 1
     6    2    4 1
     7    2   21 1
     8    3   22 1
     9    3   23 1
    10    3   24 1
    11    4    5 1
    12    4   25 1
    13    4   26 1
    14    5    6 1
    15    5   17 1
    16    5    7 1
    17    7    8 1
    18    7   27 1
    19    7   28 1
    20    8   13 ar
    21    8    9 ar
    22    9   10 ar
    23    9   16 1
    24   10   11 ar
    25   10   29 1
    26   11   12 ar
    27   11   15 1
    28   12   13 ar
    29   12   30 1
    30   13   14 1
    31   16   17 1
    32   16   31 1
    33   16   32 1
    34   17   33 1
