@<TRIPOS>MOLECULE
ZINC36842886
   40    42     0     0     0
SMALL
USER_CHARGES

@<TRIPOS>ATOM
      1 C1         -0.0184    1.5028    0.0103 C.3       1 <0>        -0.1183
      2 C2          0.0021   -0.0041    0.0020 C.ar      1 <0>        -0.0406
      3 C3          0.0057   -0.6882   -1.2000 C.ar      1 <0>        -0.1753
      4 C4          0.0240   -2.0707   -1.2121 C.ar      1 <0>        -0.0742
      5 C5          0.0391   -2.7732   -0.0230 C.ar      1 <0>        -0.2001
      6 C6          0.0360   -2.0893    1.1859 C.ar      1 <0>         0.2206
      7 C7          0.0228   -0.7000    1.1944 C.ar      1 <0>        -0.1631
      8 C8          0.0251    0.0464    2.5036 C.3       1 <0>        -0.1073
      9 N1          0.0513   -2.7965    2.3902 N.pl3     1 <0>        -0.7289
     10 C9          0.0706   -4.2614    2.3793 C.3       1 <0>         0.1300
     11 C10        -1.2628   -4.8983    2.8051 C.3       1 <0>        -0.1453
     12 C11        -0.7351   -4.8490    4.2486 C.3       1 <0>        -0.0740
     13 C12         0.6806   -4.8789    3.6488 C.3       1 <0>        -0.1395
     14 C13        -1.0740   -6.0746    5.0574 C.ar      1 <0>        -0.1037
     15 C14        -0.6245   -7.3170    4.6514 C.ar      1 <0>        -0.0907
     16 C15        -0.9352   -8.4412    5.3930 C.ar      1 <0>        -0.1267
     17 C16        -1.6958   -8.3245    6.5418 C.ar      1 <0>        -0.0949
     18 C17        -2.1458   -7.0835    6.9499 C.ar      1 <0>        -0.1517
     19 C18        -1.8308   -5.9558    6.2105 C.ar      1 <0>         0.0991
     20 F1         -2.2663   -4.7413    6.6112 F         1 <0>        -0.1385
     21 H1          1.0042    1.8801    0.0026 H         1 <0>         0.0708
     22 H2         -0.5455    1.8639   -0.8728 H         1 <0>         0.0667
     23 H3         -0.5286    1.8543    0.9071 H         1 <0>         0.0675
     24 H4         -0.0061   -0.1414   -2.1312 H         1 <0>         0.1172
     25 H5          0.0260   -2.6019   -2.1525 H         1 <0>         0.1195
     26 H6          0.0530   -3.8531   -0.0331 H         1 <0>         0.1205
     27 H7         -1.0019    0.2123    2.8290 H         1 <0>         0.0648
     28 H8          0.5541   -0.5398    3.2551 H         1 <0>         0.0565
     29 H9          0.5247    1.0064    2.3736 H         1 <0>         0.0692
     30 H10         0.0491   -2.3178    3.2339 H         1 <0>         0.3997
     31 H11         0.4770   -4.6724    1.4552 H         1 <0>         0.0973
     32 H12        -2.1273   -4.2568    2.6341 H         1 <0>         0.0756
     33 H13        -1.4039   -5.9105    2.4261 H         1 <0>         0.0921
     34 H14        -0.9698   -3.9198    4.7678 H         1 <0>         0.0992
     35 H15         1.0708   -5.8858    3.5004 H         1 <0>         0.0988
     36 H16         1.3849   -4.2218    4.1589 H         1 <0>         0.0765
     37 H17        -0.0307   -7.4093    3.7540 H         1 <0>         0.1328
     38 H18        -0.5839   -9.4116    5.0747 H         1 <0>         0.1304
     39 H19        -1.9385   -9.2038    7.1201 H         1 <0>         0.1328
     40 H20        -2.7402   -6.9927    7.8471 H         1 <0>         0.1352
@<TRIPOS>BOND
     1    1    2 1
     2    1   21 1
     3    1   22 1
     4    1   23 1
     5    2    7 ar
     6    2    3 ar
     7    3    4 ar
     8    3   24 1
     9    4    5 ar
    10    4   25 1
    11    5    6 ar
    12    5   26 1
    13    6    7 ar
    14    6    9 1
    15    7    8 1
    16    8   27 1
    17    8   28 1
    18    8   29 1
    19    9   10 1
    20    9   30 1
    21   10   13 1
    22   10   11 1
    23   10   31 1
    24   11   12 1
    25   11   32 1
    26   11   33 1
    27   12   13 1
    28   12   14 1
    29   12   34 1
    30   13   35 1
    31   13   36 1
    32   14   19 ar
    33   14   15 ar
    34   15   16 ar
    35   15   37 1
    36   16   17 ar
    37   16   38 1
    38   17   18 ar
    39   17   39 1
    40   18   19 ar
    41   18   40 1
    42   19   20 1
