@<TRIPOS>MOLECULE
ZINC20735128
   60    62     0     0     0
SMALL
USER_CHARGES
(2E)-2-[(2-chlorophenyl)methylene]-N-[3-(ethyl-propyl-amino)propyl]-3-oxo-4H-1,4-benzothiazine-6-carboxamide
@<TRIPOS>ATOM
      1 C1         10.2985   -1.1111   -3.1300 C.3       1 <0>        -0.1589
      2 C2         10.0593   -0.0402   -2.0638 C.3       1 <0>        -0.1503
      3 C3          8.9171    0.8758   -2.5081 C.3       1 <0>        -0.0123
      4 N1          8.6875    1.9040   -1.4844 N.4       1 <0>        -0.4001
      5 C4          9.8401    2.8086   -1.3790 C.3       1 <0>        -0.0150
      6 C5          9.7957    3.5367   -0.0341 C.3       1 <0>        -0.1898
      7 C6          7.4537    2.6529   -1.7580 C.3       1 <0>        -0.0076
      8 C7          6.2429    1.7928   -1.3905 C.3       1 <0>        -0.1606
      9 C8          4.9637    2.6159   -1.5554 C.3       1 <0>         0.1257
     10 N2          3.8043    1.7924   -1.2035 N.am      1 <0>        -0.7427
     11 C9          2.5626    2.3116   -1.2742 C.2       1 <0>         0.5672
     12 O1          2.4046    3.4636   -1.6301 O.2       1 <0>        -0.5270
     13 C10         1.3953    1.4824   -0.9199 C.ar      1 <0>        -0.1063
     14 C11         1.5792    0.1579   -0.5110 C.ar      1 <0>        -0.0973
     15 C12         0.4858   -0.6114   -0.1823 C.ar      1 <0>        -0.0638
     16 C13        -0.7934   -0.0746   -0.2562 C.ar      1 <0>        -0.1204
     17 C14        -0.9952    1.2494   -0.6612 C.ar      1 <0>         0.1773
     18 C15         0.1108    2.0219   -0.9934 C.ar      1 <0>        -0.0819
     19 N3         -2.2553    1.8300   -0.7411 N.am      1 <0>        -0.6731
     20 C16        -3.3666    1.4126   -0.1303 C.2       1 <0>         0.5642
     21 O2         -4.3871    2.0690   -0.2197 O.2       1 <0>        -0.4855
     22 C17        -3.3670    0.1600    0.6570 C.2       1 <0>        -0.2303
     23 C18        -4.2165   -0.0343    1.6943 C.2       1 <0>         0.0412
     24 C19        -5.0555    1.0734    2.1747 C.ar      1 <0>        -0.0700
     25 C20        -4.5353    2.3703    2.2459 C.ar      1 <0>        -0.0538
     26 C21        -5.3301    3.4044    2.6920 C.ar      1 <0>        -0.1174
     27 C22        -6.6367    3.1613    3.0801 C.ar      1 <0>        -0.0855
     28 C23        -7.1581    1.8813    3.0186 C.ar      1 <0>        -0.1147
     29 C24        -6.3776    0.8353    2.5689 C.ar      1 <0>        -0.0076
     30 Cl1        -7.0332   -0.7703    2.4929 Cl        1 <0>        -0.0582
     31 S1         -2.1911   -1.0730    0.1638 S.3       1 <0>         0.0455
     32 H1         11.1197   -1.7696   -2.8105 H         1 <0>         0.0782
     33 H2         10.5650   -0.6280   -4.0816 H         1 <0>         0.0671
     34 H3          9.3828   -1.7056   -3.2644 H         1 <0>         0.0676
     35 H4          9.7928   -0.5233   -1.1122 H         1 <0>         0.0865
     36 H5         10.9750    0.5544   -1.9294 H         1 <0>         0.0859
     37 H6          9.1836    1.3589   -3.4597 H         1 <0>         0.1280
     38 H7          8.0014    0.2813   -2.6425 H         1 <0>         0.1309
     39 H8         10.7707    2.2265   -1.4503 H         1 <0>         0.1333
     40 H9          9.8045    3.5446   -2.1957 H         1 <0>         0.1281
     41 H10        10.6588    4.2141    0.0448 H         1 <0>         0.1076
     42 H11         9.8313    2.8007    0.7826 H         1 <0>         0.0814
     43 H12         8.8650    4.1188    0.0372 H         1 <0>         0.0797
     44 H13         7.4439    3.5751   -1.1584 H         1 <0>         0.1359
     45 H14         7.4101    2.9099   -2.8267 H         1 <0>         0.1327
     46 H15         6.2021    0.9152   -2.0524 H         1 <0>         0.0953
     47 H16         6.3328    1.4603   -0.3458 H         1 <0>         0.0954
     48 H17         5.0045    3.4935   -0.8935 H         1 <0>         0.0783
     49 H18         4.8737    2.9484   -2.6001 H         1 <0>         0.0785
     50 H19         3.9472    0.7503   -0.8816 H         1 <0>         0.4233
     51 H20         2.5737   -0.2592   -0.4530 H         1 <0>         0.1339
     52 H21         0.6228   -1.6350    0.1336 H         1 <0>         0.1464
     53 H22        -0.0245    3.0454   -1.3103 H         1 <0>         0.1472
     54 H23        -2.4090    2.7282   -1.3573 H         1 <0>         0.4438
     55 H24        -4.2785   -1.0208    2.1771 H         1 <0>         0.1572
     56 H25        -3.5149    2.5614    1.9479 H         1 <0>         0.1192
     57 H26        -4.9309    4.4066    2.7435 H         1 <0>         0.1319
     58 H27        -7.2522    3.9755    3.4332 H         1 <0>         0.1369
     59 H28        -8.1781    1.6999    3.3235 H         1 <0>         0.1398
     60 H29         8.5670    1.3960   -0.5162 H         1 <0>         0.4388
@<TRIPOS>BOND
     1    1    2 1
     2    1   32 1
     3    1   33 1
     4    1   34 1
     5    2    3 1
     6    2   35 1
     7    2   36 1
     8    3    4 1
     9    3   37 1
    10    3   38 1
    11    4    5 1
    12    4    7 1
    13    4   60 1
    14    5    6 1
    15    5   39 1
    16    5   40 1
    17    6   41 1
    18    6   42 1
    19    6   43 1
    20    7    8 1
    21    7   44 1
    22    7   45 1
    23    8    9 1
    24    8   46 1
    25    8   47 1
    26    9   10 1
    27    9   48 1
    28    9   49 1
    29   10   11 am
    30   10   50 1
    31   11   12 2
    32   11   13 1
    33   13   18 ar
    34   13   14 ar
    35   14   15 ar
    36   14   51 1
    37   15   16 ar
    38   15   52 1
    39   16   31 1
    40   16   17 ar
    41   17   18 ar
    42   17   19 1
    43   18   53 1
    44   19   20 am
    45   19   54 1
    46   20   21 2
    47   20   22 1
    48   22   23 2
    49   22   31 1
    50   23   24 1
    51   23   55 1
    52   24   29 ar
    53   24   25 ar
    54   25   26 ar
    55   25   56 1
    56   26   27 ar
    57   26   57 1
    58   27   28 ar
    59   27   58 1
    60   28   29 ar
    61   28   59 1
    62   29   30 1
