@<TRIPOS>MOLECULE
ZINC24911501
   65    70     0     0     0
SMALL
USER_CHARGES
3-[4-(2-oxo-3H-benzimidazol-1-yl)-1-piperidyl]-N-(2-phenylphenyl)azetidine-1-carboxamide
@<TRIPOS>ATOM
      1 C1        -11.1541    3.2655    1.9111 C.ar      1 <0>        -0.1157
      2 C2        -12.2600    2.7073    1.2955 C.ar      1 <0>        -0.1121
      3 C3        -12.4903    1.3495    1.3840 C.ar      1 <0>        -0.1024
      4 C4        -11.6058    0.5402    2.0948 C.ar      1 <0>        -0.0461
      5 C5        -10.4957    1.1088    2.7170 C.ar      1 <0>        -0.1193
      6 C6        -10.2729    2.4671    2.6179 C.ar      1 <0>        -0.1200
      7 C7        -11.8481   -0.9196    2.1938 C.ar      1 <0>        -0.0812
      8 C8        -13.0995   -1.3968    2.5765 C.ar      1 <0>        -0.0828
      9 C9        -13.3186   -2.7560    2.6723 C.ar      1 <0>        -0.1307
     10 C10       -12.3009   -3.6488    2.3844 C.ar      1 <0>        -0.0918
     11 C11       -11.0571   -3.1877    1.9988 C.ar      1 <0>        -0.1318
     12 C12       -10.8223   -1.8241    1.8982 C.ar      1 <0>         0.1743
     13 N1         -9.5645   -1.3557    1.5086 N.am      1 <0>        -0.6821
     14 C13        -8.4704   -2.1172    1.7078 C.2       1 <0>         0.7364
     15 O1         -8.5620   -3.1654    2.3171 O.2       1 <0>        -0.5476
     16 N2         -7.2749   -1.7168    1.2316 N.am      1 <0>        -0.6717
     17 C14        -5.9098   -2.2769    1.2605 C.3       1 <0>         0.1080
     18 C15        -5.6540   -1.4444   -0.0089 C.3       1 <0>         0.0493
     19 C16        -6.8056   -0.5411    0.4684 C.3       1 <0>         0.0791
     20 N3         -4.3458   -0.7764   -0.0244 N.4       1 <0>        -0.4153
     21 C17        -4.1837    0.0352   -1.2375 C.3       1 <0>         0.0047
     22 C18        -2.7611    0.5969   -1.2906 C.3       1 <0>        -0.1658
     23 C19        -2.5079    1.4508   -0.0451 C.3       1 <0>         0.1606
     24 C20        -2.7305    0.5948    1.2048 C.3       1 <0>        -0.1644
     25 C21        -4.1539    0.0331    1.1856 C.3       1 <0>        -0.0133
     26 N4         -1.1284    1.9438   -0.0617 N.am      1 <0>        -0.5400
     27 C22        -0.7408    3.2816   -0.0647 C.ar      1 <0>         0.0744
     28 C23        -1.4447    4.4762   -0.0547 C.ar      1 <0>        -0.1052
     29 C24        -0.7618    5.6766   -0.0670 C.ar      1 <0>        -0.1052
     30 C25         0.6223    5.6921   -0.0897 C.ar      1 <0>        -0.0992
     31 C26         1.3320    4.5074   -0.0994 C.ar      1 <0>        -0.1018
     32 C27         0.6552    3.2973   -0.0872 C.ar      1 <0>         0.0868
     33 N5          1.0726    1.9684   -0.0920 N.am      1 <0>        -0.6535
     34 H1          2.1461    1.7292   -0.1089 H         1 <0>         0.4707
     35 C28        -0.0191    1.1808   -0.0734 C.2       1 <0>         0.6930
     36 O2         -0.0055   -0.0360   -0.0725 O.2       1 <0>        -0.5617
     37 H2        -10.9778    4.3286    1.8393 H         1 <0>         0.1251
     38 H3        -12.9447    3.3354    0.7450 H         1 <0>         0.1281
     39 H4        -13.3540    0.9147    0.9030 H         1 <0>         0.1276
     40 H5         -9.8093    0.4870    3.2726 H         1 <0>         0.1188
     41 H6         -9.4109    2.9082    3.0962 H         1 <0>         0.1224
     42 H7        -13.8965   -0.7037    2.8017 H         1 <0>         0.1303
     43 H8        -14.2881   -3.1245    2.9735 H         1 <0>         0.1296
     44 H9        -12.4799   -4.7110    2.4620 H         1 <0>         0.1297
     45 H10       -10.2671   -3.8893    1.7751 H         1 <0>         0.1462
     46 H11        -9.4674   -0.3655    1.0394 H         1 <0>         0.4271
     47 H12        -5.4174   -1.9942    2.2026 H         1 <0>         0.1148
     48 H13        -5.9617   -3.3733    1.1885 H         1 <0>         0.1222
     49 H14        -5.5961   -1.8756   -1.0192 H         1 <0>         0.1686
     50 H15        -7.5842   -0.2322   -0.2446 H         1 <0>         0.1118
     51 H16        -6.5947    0.2861    1.1622 H         1 <0>         0.1145
     52 H17        -4.3637   -0.5906   -2.1241 H         1 <0>         0.1413
     53 H18        -4.9050    0.8656   -1.2222 H         1 <0>         0.1313
     54 H19        -2.0400   -0.2332   -1.3210 H         1 <0>         0.1105
     55 H20        -2.6450    1.2166   -2.1920 H         1 <0>         0.1189
     56 H21        -3.1637    2.3339   -0.0362 H         1 <0>         0.1138
     57 H22        -2.0074   -0.2341    1.2150 H         1 <0>         0.1105
     58 H23        -2.5909    1.2142    2.1031 H         1 <0>         0.1170
     59 H24        -4.8753    0.8635    1.1894 H         1 <0>         0.1314
     60 H25        -4.3121   -0.5941    2.0753 H         1 <0>         0.1391
     61 H26        -2.5245    4.4680   -0.0370 H         1 <0>         0.1267
     62 H27        -1.3099    6.6071   -0.0592 H         1 <0>         0.1374
     63 H28         1.1494    6.6347   -0.0996 H         1 <0>         0.1390
     64 H29         2.4117    4.5235   -0.1168 H         1 <0>         0.1363
     65 H30        -3.5676   -1.5537   -0.0345 H         1 <0>         0.4534
@<TRIPOS>BOND
     1    1    6 ar
     2    1    2 ar
     3    1   37 1
     4    2    3 ar
     5    2   38 1
     6    3    4 ar
     7    3   39 1
     8    4    5 ar
     9    4    7 1
    10    5    6 ar
    11    5   40 1
    12    6   41 1
    13    7   12 ar
    14    7    8 ar
    15    8    9 ar
    16    8   42 1
    17    9   10 ar
    18    9   43 1
    19   10   11 ar
    20   10   44 1
    21   11   12 ar
    22   11   45 1
    23   12   13 1
    24   13   14 am
    25   13   46 1
    26   14   15 2
    27   14   16 am
    28   16   19 1
    29   16   17 1
    30   17   18 1
    31   17   47 1
    32   17   48 1
    33   18   19 1
    34   18   20 1
    35   18   49 1
    36   19   50 1
    37   19   51 1
    38   20   25 1
    39   20   21 1
    40   20   65 1
    41   21   22 1
    42   21   52 1
    43   21   53 1
    44   22   23 1
    45   22   54 1
    46   22   55 1
    47   23   24 1
    48   23   26 1
    49   23   56 1
    50   24   25 1
    51   24   57 1
    52   24   58 1
    53   25   59 1
    54   25   60 1
    55   26   35 am
    56   26   27 1
    57   27   32 ar
    58   27   28 ar
    59   28   29 ar
    60   28   61 1
    61   29   30 ar
    62   29   62 1
    63   30   31 ar
    64   30   63 1
    65   31   32 ar
    66   31   64 1
    67   32   33 1
    68   33   34 1
    69   33   35 am
    70   35   36 2
