@<TRIPOS>MOLECULE
ZINC05733931
   63    65     0     0     0
SMALL
USER_CHARGES
N'-[9-(2-dimethylaminoethylimino)-7-methoxy-4-nitro-10H-acridin-1-yl]-N,N-dimethyl-ethane-1,2-diamine
@<TRIPOS>ATOM
      1 C1         -0.8566    3.3014   -0.8695 C.3       1 <0>        -0.0508
      2 C2         -0.2207    1.4151   -2.2479 C.3       1 <0>        -0.0425
      3 C3          0.0291    1.2956    0.1575 C.3       1 <0>        -0.0138
      4 C4         -0.7020    1.5423    1.4787 C.3       1 <0>         0.0822
      5 N1          0.0924    1.0019    2.5846 N.pl3     1 <0>        -0.7112
      6 C5         -0.3720    1.1085    3.8919 C.ar      1 <0>         0.3388
      7 C6         -1.5336    1.8174    4.1663 C.ar      1 <0>        -0.2423
      8 C7         -1.9949    1.9186    5.4663 C.ar      1 <0>         0.0608
      9 C8         -1.3054    1.3314    6.5085 C.ar      1 <0>        -0.1512
     10 C9         -0.1362    0.6211    6.2605 C.ar      1 <0>         0.3277
     11 C10         0.3309    0.5069    4.9415 C.ar      1 <0>        -0.2049
     12 C11         1.5683   -0.2609    4.6871 C.2       1 <0>         0.3412
     13 N2          2.1840   -0.2049    3.5329 N.2       1 <0>        -0.5961
     14 C12         3.5998   -0.5695    3.4396 C.3       1 <0>         0.0076
     15 C13         4.3678    0.5458    2.7275 C.3       1 <0>         0.0020
     16 C14         5.9744   -0.9858    1.7601 C.3       1 <0>        -0.0478
     17 C15         6.5948    1.3179    2.1735 C.3       1 <0>        -0.0415
     18 C16         2.0791   -1.0971    5.7985 C.ar      1 <0>        -0.1345
     19 C17         3.0690   -2.0507    5.5795 C.ar      1 <0>        -0.1206
     20 C18         3.5210   -2.8215    6.6361 C.ar      1 <0>         0.1122
     21 C19         2.9888   -2.6428    7.9079 C.ar      1 <0>        -0.1334
     22 C20         2.0090   -1.6990    8.1324 C.ar      1 <0>        -0.1048
     23 C21         1.5433   -0.9148    7.0824 C.ar      1 <0>         0.1718
     24 N3          0.5603    0.0370    7.3039 N.pl3     1 <0>        -0.6202
     25 H1          0.3553    0.3008    8.2145 H         1 <0>         0.4328
     26 O1          4.4880   -3.7552    6.4300 O.3       1 <0>        -0.3157
     27 C22         4.9079   -4.5156    7.5647 C.3       1 <0>         0.0201
     28 N4         -1.8126    1.4580    7.8934 N.pl3     1 <0>         0.0364
     29 O2         -1.5757    0.5866    8.7108 O.2       1 <0>        -0.1846
     30 O3         -2.4667    2.4336    8.2156 O.3       1 <0>        -0.1274
     31 H2          0.1446    3.7296   -0.9165 H         1 <0>         0.1249
     32 H3         -1.4516    3.6764   -1.7023 H         1 <0>         0.1305
     33 H4         -1.3291    3.5845    0.0711 H         1 <0>         0.1241
     34 H5         -0.2308    0.3269   -2.3094 H         1 <0>         0.1235
     35 H6         -0.8292    1.8301   -3.0515 H         1 <0>         0.1301
     36 H7          0.8036    1.7750   -2.3449 H         1 <0>         0.1232
     37 H8          0.1695    0.2242    0.0144 H         1 <0>         0.1358
     38 H9          1.0006    1.7892    0.1821 H         1 <0>         0.1348
     39 H10        -0.8423    2.6137    1.6217 H         1 <0>         0.0919
     40 H11        -1.6735    1.0487    1.4540 H         1 <0>         0.0917
     41 H12         0.9422    0.5698    2.4056 H         1 <0>         0.4267
     42 H13        -2.0807    2.2872    3.3623 H         1 <0>         0.1495
     43 H14        -2.9028    2.4672    5.6692 H         1 <0>         0.1644
     44 H15         4.0061   -0.7080    4.4415 H         1 <0>         0.0920
     45 H16         3.6998   -1.4969    2.8756 H         1 <0>         0.0981
     46 H17         3.9614    0.6843    1.7256 H         1 <0>         0.1303
     47 H18         4.2678    1.4732    3.2915 H         1 <0>         0.1283
     48 H19         5.6067   -0.7535    0.7607 H         1 <0>         0.1230
     49 H20         7.0342   -1.2350    1.7085 H         1 <0>         0.1280
     50 H21         5.4209   -1.8340    2.1629 H         1 <0>         0.1213
     51 H22         6.4923    2.1444    2.8768 H         1 <0>         0.1224
     52 H23         7.6415    1.0198    2.1132 H         1 <0>         0.1278
     53 H24         6.2496    1.6336    1.1890 H         1 <0>         0.1223
     54 H25         3.4819   -2.1881    4.5911 H         1 <0>         0.1461
     55 H26         3.3460   -3.2487    8.7274 H         1 <0>         0.1509
     56 H27         1.6028   -1.5686    9.1246 H         1 <0>         0.1519
     57 H28         5.3066   -3.8439    8.3249 H         1 <0>         0.0631
     58 H29         4.0564   -5.0608    7.9721 H         1 <0>         0.0647
     59 H30         5.6809   -5.2223    7.2627 H         1 <0>         0.1110
     60 N5         -0.7940    1.8268   -0.9493 N.4       1 <0>        -0.3951
     61 H31        -1.7449    1.4479   -0.8693 H         1 <0>         0.4368
     62 N6          5.7965    0.1731    2.6602 N.4       1 <0>        -0.3981
     63 H32         6.1192   -0.0826    3.6008 H         1 <0>         0.4338
@<TRIPOS>BOND
     1    1   31 1
     2    1   32 1
     3    1   33 1
     4    1   60 1
     5    2   34 1
     6    2   35 1
     7    2   36 1
     8    2   60 1
     9    3    4 1
    10    3   37 1
    11    3   38 1
    12    3   60 1
    13    4    5 1
    14    4   39 1
    15    4   40 1
    16    5    6 1
    17    5   41 1
    18    6   11 ar
    19    6    7 ar
    20    7    8 ar
    21    7   42 1
    22    8    9 ar
    23    8   43 1
    24    9   10 ar
    25    9   28 1
    26   10   24 1
    27   10   11 ar
    28   11   12 1
    29   12   13 2
    30   12   18 1
    31   13   14 1
    32   14   15 1
    33   14   44 1
    34   14   45 1
    35   15   46 1
    36   15   47 1
    37   15   62 1
    38   16   48 1
    39   16   49 1
    40   16   50 1
    41   16   62 1
    42   17   51 1
    43   17   52 1
    44   17   53 1
    45   17   62 1
    46   18   23 ar
    47   18   19 ar
    48   19   20 ar
    49   19   54 1
    50   20   21 ar
    51   20   26 1
    52   21   22 ar
    53   21   55 1
    54   22   23 ar
    55   22   56 1
    56   23   24 1
    57   24   25 1
    58   26   27 1
    59   27   57 1
    60   27   58 1
    61   27   59 1
    62   28   29 2
    63   28   30 1
    64   60   61 1
    65   62   63 1
