@<TRIPOS>MOLECULE
ZINC39763868
   45    47     0     0     0
SMALL
USER_CHARGES

@<TRIPOS>ATOM
      1 C1          1.0851   -0.4605    0.7498 C.ar      1 <0>        -0.0912
      2 C2          2.2739    0.2431    0.7376 C.ar      1 <0>        -0.1044
      3 C3          2.3811    1.4100   -0.0074 C.ar      1 <0>         0.1394
      4 C4          1.2921    1.8663   -0.7385 C.ar      1 <0>        -0.1145
      5 C5          0.1056    1.1582   -0.7224 C.ar      1 <0>        -0.0723
      6 C6          0.0024   -0.0044    0.0213 C.ar      1 <0>        -0.0967
      7 Br1        -1.3782    1.7781   -1.7172 Br        1 <0>        -0.0338
      8 N1          3.5839    2.1248   -0.0212 N.am      1 <0>        -0.6660
      9 C7          4.7583    1.4695    0.0657 C.2       1 <0>         0.5177
     10 O1          4.7780    0.2568    0.0596 O.2       1 <0>        -0.5029
     11 C8          6.0471    2.2435    0.1706 C.3       1 <0>        -0.1198
     12 C9          6.2168    3.1261   -1.0693 C.3       1 <0>        -0.1421
     13 C10         7.5637    3.8484   -0.9941 C.3       1 <0>        -0.0046
     14 N2          8.6495    2.8622   -0.9414 N.4       1 <0>        -0.3843
     15 C11         8.5343    2.0593    0.2819 C.3       1 <0>        -0.0113
     16 C12         7.2247    1.2682    0.2558 C.3       1 <0>        -0.1259
     17 C13         9.9427    3.5591   -0.9480 C.3       1 <0>         0.0397
     18 C14        11.0579    2.5479   -1.0179 C.ar      1 <0>        -0.1906
     19 C15        11.5985    2.0312    0.1474 C.ar      1 <0>         0.1369
     20 C16        12.6230    1.1023    0.0818 C.ar      1 <0>        -0.1395
     21 C17        13.1057    0.6913   -1.1465 C.ar      1 <0>        -0.0403
     22 C18        12.5662    1.2071   -2.3096 C.ar      1 <0>        -0.1091
     23 C19        11.5382    2.1314   -2.2460 C.ar      1 <0>         0.0060
     24 Cl1        10.8563    2.7733   -3.7078 Cl        1 <0>        -0.0348
     25 F1         11.1267    2.4335    1.3477 F         1 <0>        -0.1219
     26 H1          1.0029   -1.3705    1.3257 H         1 <0>         0.1403
     27 H2          3.1191   -0.1139    1.3073 H         1 <0>         0.1395
     28 H3          1.3723    2.7737   -1.3187 H         1 <0>         0.1364
     29 H4         -0.9257   -0.5565    0.0323 H         1 <0>         0.1394
     30 H5          3.5724    3.0921   -0.0934 H         1 <0>         0.4128
     31 H6          6.0256    2.8679    1.0638 H         1 <0>         0.1231
     32 H7          6.1860    2.5055   -1.9648 H         1 <0>         0.0985
     33 H8          5.4117    3.8601   -1.1065 H         1 <0>         0.1204
     34 H9          7.6876    4.4779   -1.8753 H         1 <0>         0.1393
     35 H10         7.5932    4.4689   -0.0984 H         1 <0>         0.1374
     36 H11         9.3748    1.3679    0.3427 H         1 <0>         0.1288
     37 H12         8.5431    2.7179    1.1504 H         1 <0>         0.1369
     38 H13         7.1402    0.6741    1.1658 H         1 <0>         0.1231
     39 H14         7.2149    0.6090   -0.6122 H         1 <0>         0.0990
     40 H15         9.9955    4.2188   -1.8141 H         1 <0>         0.1465
     41 H16        10.0427    4.1479   -0.0362 H         1 <0>         0.1470
     42 H17        13.0453    0.6991    0.9903 H         1 <0>         0.1587
     43 H18        13.9052   -0.0330   -1.1973 H         1 <0>         0.1598
     44 H19        12.9443    0.8856   -3.2689 H         1 <0>         0.1569
     45 H20         8.5920    2.2568   -1.7466 H         1 <0>         0.4225
@<TRIPOS>BOND
     1    1    6 ar
     2    1    2 ar
     3    1   26 1
     4    2    3 ar
     5    2   27 1
     6    3    4 ar
     7    3    8 1
     8    4    5 ar
     9    4   28 1
    10    5    6 ar
    11    5    7 1
    12    6   29 1
    13    8    9 am
    14    8   30 1
    15    9   10 2
    16    9   11 1
    17   11   16 1
    18   11   12 1
    19   11   31 1
    20   12   13 1
    21   12   32 1
    22   12   33 1
    23   13   14 1
    24   13   34 1
    25   13   35 1
    26   14   15 1
    27   14   17 1
    28   14   45 1
    29   15   16 1
    30   15   36 1
    31   15   37 1
    32   16   38 1
    33   16   39 1
    34   17   18 1
    35   17   40 1
    36   17   41 1
    37   18   23 ar
    38   18   19 ar
    39   19   20 ar
    40   19   25 1
    41   20   21 ar
    42   20   42 1
    43   21   22 ar
    44   21   43 1
    45   22   23 ar
    46   22   44 1
    47   23   24 1
