@<TRIPOS>MOLECULE
ZINC62159022
   39    41     0     0     0
SMALL
USER_CHARGES

@<TRIPOS>ATOM
      1 C1          0.2017   -5.9150    8.0147 C.3       1 <0>        -0.1191
      2 C2          0.1089   -4.5837    7.3147 C.ar      1 <0>        -0.1044
      3 C3         -0.0018   -3.4204    8.0536 C.ar      1 <0>        -0.0612
      4 C4         -0.0869   -2.1994    7.4116 C.ar      1 <0>        -0.1341
      5 C5         -0.0609   -2.1413    6.0305 C.ar      1 <0>        -0.0220
      6 C6          0.0507   -3.3041    5.2919 C.ar      1 <0>        -0.6724
      7 C7          0.1401   -4.5251    5.9342 C.ar      1 <0>        -0.0214
      8 S1          0.0833   -3.2301    3.5317 S.o2      1 <0>         2.6885
      9 O1         -0.3484   -4.5004    3.0637 O.2       1 <0>        -0.9475
     10 O2         -0.5672   -2.0214    3.1640 O.2       1 <0>        -0.9417
     11 N1          1.6679   -3.0718    3.0776 N.pl3     1 <0>        -1.0646
     12 C8          2.3767   -1.9218    3.4135 C.ar      1 <0>         0.1792
     13 C9          2.1339   -0.7317    2.7245 C.ar      1 <0>        -0.1353
     14 C10         2.8190    0.4033    3.0408 C.ar      1 <0>        -0.0453
     15 C11         3.7756    0.3793    4.0652 C.ar      1 <0>        -0.1167
     16 C12         4.4994    1.5493    4.4107 C.2       1 <0>        -0.0279
     17 C13         5.4171    1.4892    5.4074 C.2       1 <0>        -0.1775
     18 C14         5.6480    0.2775    6.0906 C.2       1 <0>         0.5377
     19 O3          6.4766    0.2407    6.9841 O.2       1 <0>        -0.5319
     20 N2          4.9672   -0.8392    5.7716 N.am      1 <0>        -0.6279
     21 H1          5.1401   -1.6633    6.2531 H         1 <0>         0.4168
     22 C15         4.0248   -0.8185    4.7637 C.ar      1 <0>         0.1890
     23 C16         3.3145   -1.9646    4.4332 C.ar      1 <0>        -0.1573
     24 C17         6.1943    2.7234    5.7864 C.3       1 <0>        -0.1003
     25 H2          1.2478   -6.1505    8.2103 H         1 <0>         0.0750
     26 H3         -0.3427   -5.8683    8.9579 H         1 <0>         0.0714
     27 H4         -0.2329   -6.6891    7.3823 H         1 <0>         0.0723
     28 H5         -0.0221   -3.4658    9.1325 H         1 <0>         0.1321
     29 H6         -0.1741   -1.2907    7.9888 H         1 <0>         0.1342
     30 H7         -0.1281   -1.1872    5.5288 H         1 <0>         0.1396
     31 H8          0.2311   -5.4335    5.3571 H         1 <0>         0.1405
     32 H9          2.1022   -3.7805    2.5775 H         1 <0>         0.4302
     33 H10         1.3976   -0.7105    1.9346 H         1 <0>         0.1448
     34 H11         2.6254    1.3196    2.5028 H         1 <0>         0.1459
     35 H12         4.3222    2.4766    3.8862 H         1 <0>         0.1468
     36 H13         3.4947   -2.8867    4.9658 H         1 <0>         0.1403
     37 H14         5.6554    3.2684    6.5614 H         1 <0>         0.0747
     38 H15         7.1758    2.4338    6.1616 H         1 <0>         0.0773
     39 H16         6.3138    3.3608    4.9103 H         1 <0>         0.0726
@<TRIPOS>BOND
     1    1    2 1
     2    1   25 1
     3    1   26 1
     4    1   27 1
     5    2    7 ar
     6    2    3 ar
     7    3    4 ar
     8    3   28 1
     9    4    5 ar
    10    4   29 1
    11    5    6 ar
    12    5   30 1
    13    6    7 ar
    14    6    8 1
    15    7   31 1
    16    8    9 2
    17    8   10 2
    18    8   11 1
    19   11   12 1
    20   11   32 1
    21   12   23 ar
    22   12   13 ar
    23   13   14 ar
    24   13   33 1
    25   14   15 ar
    26   14   34 1
    27   15   22 ar
    28   15   16 1
    29   16   17 2
    30   16   35 1
    31   17   18 1
    32   17   24 1
    33   18   19 2
    34   18   20 am
    35   20   21 1
    36   20   22 1
    37   22   23 ar
    38   23   36 1
    39   24   37 1
    40   24   38 1
    41   24   39 1
