@<TRIPOS>MOLECULE
ZINC37367927
   35    37     0     0     0
SMALL
USER_CHARGES

@<TRIPOS>ATOM
      1 C1         -1.5257    0.8007    0.1743 C.3       1 <0>        -0.1170
      2 C2         -0.4871   -0.2864    0.0723 C.ar      1 <0>        -0.1026
      3 C3         -0.2606   -0.9148   -1.1367 C.ar      1 <0>        -0.0877
      4 C4          0.6923   -1.9120   -1.2317 C.ar      1 <0>        -0.1090
      5 C5          1.4226   -2.2841   -0.1164 C.ar      1 <0>        -0.0717
      6 C6          1.2011   -1.6595    1.0958 C.ar      1 <0>        -0.1251
      7 C7          0.2476   -0.6534    1.1929 C.ar      1 <0>         0.1767
      8 N1          0.0246   -0.0162    2.4154 N.pl3     1 <0>        -0.6797
      9 C8         -0.0465   -0.7696    3.5962 C.ar      1 <0>         0.1341
     10 C9         -0.0141   -2.1554    3.5380 C.ar      1 <0>        -0.1449
     11 C10        -0.0849   -2.8965    4.7062 C.ar      1 <0>         0.0804
     12 C11        -0.1890   -2.2531    5.9382 C.ar      1 <0>         0.0878
     13 C12        -0.2210   -0.8706    5.9973 C.ar      1 <0>        -0.1483
     14 C13        -0.1441   -0.1260    4.8289 C.ar      1 <0>         0.1810
     15 N2         -0.1701    1.2742    4.8878 N.pl3     1 <0>        -0.8760
     16 O1         -0.2600   -2.9958    7.0766 O.3       1 <0>        -0.3009
     17 C14        -0.9243   -4.2583    6.9802 C.3       1 <0>         0.0516
     18 C15        -0.4365   -4.9952    5.7588 C.2       1 <0>         0.4900
     19 O2         -0.3894   -6.2073    5.7572 O.2       1 <0>        -0.5136
     20 N3         -0.0526   -4.3001    4.6661 N.am      1 <0>        -0.6559
     21 Br1         2.7244   -3.6490   -0.2519 Br        1 <0>        -0.0443
     22 H1         -1.0643    1.7652   -0.0378 H         1 <0>         0.0730
     23 H2         -2.3211    0.6121   -0.5468 H         1 <0>         0.0736
     24 H3         -1.9431    0.8112    1.1812 H         1 <0>         0.0684
     25 H4         -0.8290   -0.6271   -2.0088 H         1 <0>         0.1358
     26 H5          0.8670   -2.4019   -2.1783 H         1 <0>         0.1346
     27 H6          1.7710   -1.9501    1.9660 H         1 <0>         0.1395
     28 H7         -0.0811    0.9475    2.4478 H         1 <0>         0.4076
     29 H8          0.0659   -2.6553    2.5840 H         1 <0>         0.1415
     30 H9         -0.3009   -0.3719    6.9520 H         1 <0>         0.1428
     31 H10        -0.1202    1.7950    4.0710 H         1 <0>         0.3937
     32 H11        -0.2380    1.7224    5.7454 H         1 <0>         0.4046
     33 H12        -0.7104   -4.8498    7.8704 H         1 <0>         0.1456
     34 H13        -1.9995   -4.0975    6.9016 H         1 <0>         0.0995
     35 H14         0.2406   -4.7632    3.8658 H         1 <0>         0.4150
@<TRIPOS>BOND
     1    1    2 1
     2    1   22 1
     3    1   23 1
     4    1   24 1
     5    2    7 ar
     6    2    3 ar
     7    3    4 ar
     8    3   25 1
     9    4    5 ar
    10    4   26 1
    11    5    6 ar
    12    5   21 1
    13    6    7 ar
    14    6   27 1
    15    7    8 1
    16    8    9 1
    17    8   28 1
    18    9   14 ar
    19    9   10 ar
    20   10   11 ar
    21   10   29 1
    22   11   20 1
    23   11   12 ar
    24   12   13 ar
    25   12   16 1
    26   13   14 ar
    27   13   30 1
    28   14   15 1
    29   15   31 1
    30   15   32 1
    31   16   17 1
    32   17   18 1
    33   17   33 1
    34   17   34 1
    35   18   19 2
    36   18   20 am
    37   20   35 1
