@<TRIPOS>MOLECULE
ZINC39686978
   71    74     0     0     0
SMALL
USER_CHARGES

@<TRIPOS>ATOM
      1 C1         -2.2102    1.3227    1.2578 C.3       1 <0>        -0.1632
      2 C2         -0.7140    1.2125    0.9573 C.3       1 <0>         0.1449
      3 H1         -0.5597    0.5209    0.1291 H         1 <0>         0.0955
      4 C3         -0.1668    2.5905    0.5797 C.3       1 <0>        -0.0881
      5 C4          1.2763    2.4617    0.1654 C.ar      1 <0>        -0.1224
      6 C5          2.2824    2.6743    1.0890 C.ar      1 <0>        -0.0921
      7 C6          3.6062    2.5562    0.7092 C.ar      1 <0>        -0.1273
      8 C7          3.9256    2.2252   -0.5947 C.ar      1 <0>        -0.0884
      9 C8          2.9215    2.0117   -1.5196 C.ar      1 <0>        -0.1474
     10 C9          1.5948    2.1247   -1.1390 C.ar      1 <0>         0.1039
     11 F1          0.6122    1.9116   -2.0414 F         1 <0>        -0.1346
     12 N1         -0.0127    0.7172    2.1444 N.am      1 <0>        -0.7211
     13 C10         0.0677   -0.6082    2.3754 C.2       1 <0>         0.5214
     14 O1         -0.4405   -1.3908    1.6007 O.2       1 <0>        -0.5162
     15 C11         0.7891   -1.1178    3.5965 C.3       1 <0>        -0.1155
     16 H2          1.6659   -0.5037    3.8023 H         1 <0>         0.1120
     17 C12         1.2002   -2.5944    3.4014 C.3       1 <0>         0.1013
     18 N2          1.0103   -3.2150    4.7336 N.am      1 <0>        -0.6212
     19 C13        -0.2368   -2.6028    5.2511 C.3       1 <0>         0.1076
     20 C14        -0.1546   -1.1277    4.8108 C.3       1 <0>        -0.0726
     21 C15        -1.5363   -0.6194    4.4104 C.3       1 <0>        -0.1488
     22 C16        -2.4398   -0.5831    5.6463 C.3       1 <0>        -0.0078
     23 N3         -1.8481    0.2964    6.6617 N.4       1 <0>        -0.5039
     24 C17        -0.5612   -0.2501    7.1088 C.3       1 <0>        -0.0113
     25 C18         0.4218   -0.2722    5.9349 C.3       1 <0>        -0.1330
     26 C19         1.7945   -4.1293    5.3383 C.2       1 <0>         0.5562
     27 O2          1.4601   -4.6065    6.4019 O.2       1 <0>        -0.5234
     28 C20         3.0869   -4.5585    4.6929 C.3       1 <0>        -0.0731
     29 C21         2.8062   -5.0643    3.2765 C.3       1 <0>        -0.1214
     30 C22         1.8480   -6.2554    3.3408 C.3       1 <0>        -0.1211
     31 C23         2.4827   -7.3765    4.1663 C.3       1 <0>        -0.1227
     32 C24         2.7634   -6.8706    5.5827 C.3       1 <0>        -0.1313
     33 C25         3.7215   -5.6795    5.5184 C.3       1 <0>        -0.0947
     34 C26         4.0450   -3.3674    4.6285 C.3       1 <0>        -0.1458
     35 H3         -2.3645    2.0143    2.0860 H         1 <0>         0.0557
     36 H4         -2.7319    1.6913    0.3746 H         1 <0>         0.0745
     37 H5         -2.6000    0.3410    1.5268 H         1 <0>         0.0629
     38 H6         -0.7475    2.9977   -0.2480 H         1 <0>         0.0966
     39 H7         -0.2402    3.2583    1.4381 H         1 <0>         0.0835
     40 H8          2.0341    2.9332    2.1077 H         1 <0>         0.1251
     41 H9          4.3917    2.7229    1.4315 H         1 <0>         0.1303
     42 H10         4.9603    2.1339   -0.8905 H         1 <0>         0.1353
     43 H11         3.1712    1.7535   -2.5381 H         1 <0>         0.1384
     44 H12         0.3937    1.3431    2.7640 H         1 <0>         0.3962
     45 H13         0.5568   -3.0737    2.6636 H         1 <0>         0.1014
     46 H14         2.2446   -2.6610    3.0965 H         1 <0>         0.1031
     47 H15        -1.1090   -3.0846    4.8093 H         1 <0>         0.0819
     48 H16        -0.2723   -2.6729    6.3383 H         1 <0>         0.0874
     49 H17        -1.4484    0.3842    3.9944 H         1 <0>         0.1001
     50 H18        -1.9673   -1.2868    3.6641 H         1 <0>         0.1233
     51 H19        -3.4228   -0.2045    5.3663 H         1 <0>         0.1390
     52 H20        -2.5406   -1.5897    6.0520 H         1 <0>         0.1332
     53 H21        -1.7036    1.2138    6.2673 H         1 <0>         0.4270
     54 H22        -0.1594    0.3739    7.9071 H         1 <0>         0.1396
     55 H23        -0.7067   -1.2647    7.4797 H         1 <0>         0.1340
     56 H24         1.3714   -0.6948    6.2633 H         1 <0>         0.1179
     57 H25         0.5805    0.7440    5.5740 H         1 <0>         0.0955
     58 H26         2.3541   -4.2657    2.6884 H         1 <0>         0.0727
     59 H27         3.7409   -5.3748    2.8096 H         1 <0>         0.0800
     60 H28         0.9133   -5.9450    3.8077 H         1 <0>         0.0558
     61 H29         1.6481   -6.6158    2.3318 H         1 <0>         0.0686
     62 H30         1.8001   -8.2250    4.2122 H         1 <0>         0.0633
     63 H31         3.4174   -7.6869    3.6995 H         1 <0>         0.0639
     64 H32         1.8286   -6.5602    6.0496 H         1 <0>         0.0813
     65 H33         3.2155   -7.6693    6.1708 H         1 <0>         0.0641
     66 H34         4.6563   -5.9900    5.0515 H         1 <0>         0.0728
     67 H35         3.9215   -5.3191    6.5275 H         1 <0>         0.0694
     68 H36         4.1754   -2.9516    5.6276 H         1 <0>         0.0615
     69 H37         5.0099   -3.6976    4.2437 H         1 <0>         0.0755
     70 H38         3.6324   -2.6044    3.9684 H         1 <0>         0.0605
     71 H39        -2.4742    0.3668    7.4498 H         1 <0>         0.4344
@<TRIPOS>BOND
     1    1    2 1
     2    1   35 1
     3    1   36 1
     4    1   37 1
     5    2    3 1
     6    2    4 1
     7    2   12 1
     8    4    5 1
     9    4   38 1
    10    4   39 1
    11    5   10 ar
    12    5    6 ar
    13    6    7 ar
    14    6   40 1
    15    7    8 ar
    16    7   41 1
    17    8    9 ar
    18    8   42 1
    19    9   10 ar
    20    9   43 1
    21   10   11 1
    22   12   13 am
    23   12   44 1
    24   13   14 2
    25   13   15 1
    26   15   16 1
    27   15   20 1
    28   15   17 1
    29   17   18 1
    30   17   45 1
    31   17   46 1
    32   18   19 1
    33   18   26 am
    34   19   20 1
    35   19   47 1
    36   19   48 1
    37   20   25 1
    38   20   21 1
    39   21   22 1
    40   21   49 1
    41   21   50 1
    42   22   23 1
    43   22   51 1
    44   22   52 1
    45   23   24 1
    46   23   53 1
    47   23   71 1
    48   24   25 1
    49   24   54 1
    50   24   55 1
    51   25   56 1
    52   25   57 1
    53   26   27 2
    54   26   28 1
    55   28   33 1
    56   28   29 1
    57   28   34 1
    58   29   30 1
    59   29   58 1
    60   29   59 1
    61   30   31 1
    62   30   60 1
    63   30   61 1
    64   31   32 1
    65   31   62 1
    66   31   63 1
    67   32   33 1
    68   32   64 1
    69   32   65 1
    70   33   66 1
    71   33   67 1
    72   34   68 1
    73   34   69 1
    74   34   70 1
