@<TRIPOS>MOLECULE
ZINC35573827
   73    76     0     0     0
SMALL
USER_CHARGES

@<TRIPOS>ATOM
      1 C1          0.6494    1.2124   -0.6385 C.3       1 <0>        -0.1502
      2 C2          0.5777   -0.3159   -0.6262 C.3       1 <0>        -0.0947
      3 C3          1.4065   -0.8559    0.5410 C.3       1 <0>        -0.1466
      4 C4         -0.8784   -0.7568   -0.4648 C.3       1 <0>         0.0665
      5 O1         -0.9597   -2.1796   -0.5699 O.3       1 <0>        -0.3723
      6 C5         -2.2843   -2.6979   -0.4326 C.3       1 <0>         0.0329
      7 C6         -2.2515   -4.2221   -0.5614 C.3       1 <0>         0.0859
      8 H1         -1.5470   -4.6328    0.1618 H         1 <0>         0.1315
      9 C7         -3.6475   -4.7869   -0.2910 C.3       1 <0>        -0.0436
     10 N1         -3.5913   -6.2548   -0.2965 N.4       1 <0>        -0.3789
     11 C8         -2.7612   -6.7173    0.8238 C.3       1 <0>        -0.0533
     12 C9         -4.9492   -6.7974   -0.1564 C.3       1 <0>         0.0884
     13 C10        -4.9063   -8.2982   -0.2850 C.2       1 <0>         0.0220
     14 C11        -5.0286   -9.0205   -1.4680 C.2       1 <0>        -0.2218
     15 C12        -4.9389  -10.3427   -1.1633 C.2       1 <0>         0.1263
     16 N2         -4.7634  -10.4492    0.1640 N.pl3     1 <0>        -0.2859
     17 N3         -4.7414   -9.1511    0.6982 N.2       1 <0>        -0.2565
     18 C13        -4.6219  -11.6427    0.8861 C.ar      1 <0>         0.1255
     19 C14        -3.8334  -12.6695    0.3845 C.ar      1 <0>        -0.1017
     20 C15        -3.6956  -13.8442    1.0976 C.ar      1 <0>        -0.0885
     21 C16        -4.3431  -13.9985    2.3109 C.ar      1 <0>        -0.0227
     22 C17        -5.1295  -12.9764    2.8129 C.ar      1 <0>        -0.0917
     23 C18        -5.2655  -11.7975    2.1065 C.ar      1 <0>        -0.0855
     24 Cl1        -4.1688  -15.4767    3.2043 Cl        1 <0>        -0.0420
     25 C19        -5.0339  -11.4365   -2.1980 C.3       1 <0>        -0.0598
     26 C20        -5.6251  -10.8246   -3.4759 C.3       1 <0>         0.0503
     27 N4         -4.9033   -9.5897   -3.8122 N.3       1 <0>        -0.5318
     28 C21        -5.2250   -8.5034   -2.8709 C.3       1 <0>         0.1315
     29 C22        -5.1732   -9.1829   -5.1977 C.3       1 <0>         0.0973
     30 C23        -4.5954  -10.2046   -6.1429 C.ar      1 <0>        -0.0753
     31 C24        -3.2958  -10.0707   -6.5953 C.ar      1 <0>        -0.0926
     32 C25        -2.7652  -11.0074   -7.4622 C.ar      1 <0>        -0.1044
     33 C26        -3.5339  -12.0785   -7.8777 C.ar      1 <0>        -0.1049
     34 C27        -4.8342  -12.2131   -7.4255 C.ar      1 <0>        -0.0336
     35 C28        -5.3628  -11.2783   -6.5528 C.ar      1 <0>        -0.1089
     36 Cl2        -5.8001  -13.5580   -7.9469 Cl        1 <0>        -0.0623
     37 O2         -1.8407   -4.5797   -1.8825 O.3       1 <0>        -0.5421
     38 H2          1.6868    1.5266   -0.7535 H         1 <0>         0.0670
     39 H3          0.0590    1.5972   -1.4700 H         1 <0>         0.0579
     40 H4          0.2536    1.6023    0.2993 H         1 <0>         0.0581
     41 H5          0.9736   -0.7057   -1.5639 H         1 <0>         0.0803
     42 H6          1.0106   -0.4661    1.4788 H         1 <0>         0.0532
     43 H7          1.3555   -1.9447    0.5498 H         1 <0>         0.0592
     44 H8          2.4439   -0.5418    0.4260 H         1 <0>         0.0588
     45 H9         -1.2470   -0.4430    0.5118 H         1 <0>         0.0537
     46 H10        -1.4853   -0.2995   -1.2462 H         1 <0>         0.0534
     47 H11        -2.6820   -2.4243    0.5447 H         1 <0>         0.0675
     48 H12        -2.9203   -2.2809   -1.2134 H         1 <0>         0.0635
     49 H13        -3.9976   -4.4404    0.6813 H         1 <0>         0.1453
     50 H14        -4.3336   -4.4467   -1.0666 H         1 <0>         0.1397
     51 H15        -2.7196   -7.8065    0.8197 H         1 <0>         0.1246
     52 H16        -1.7537   -6.3147    0.7198 H         1 <0>         0.1266
     53 H17        -3.1946   -6.3738    1.7631 H         1 <0>         0.1262
     54 H18        -5.3492   -6.5278    0.8211 H         1 <0>         0.1457
     55 H19        -5.5880   -6.3839   -0.9369 H         1 <0>         0.1484
     56 H20        -3.3285  -12.5498   -0.5627 H         1 <0>         0.1425
     57 H21        -3.0824  -14.6432    0.7078 H         1 <0>         0.1515
     58 H22        -5.6338  -13.0991    3.7601 H         1 <0>         0.1499
     59 H23        -5.8757  -10.9984    2.5008 H         1 <0>         0.1429
     60 H24        -4.0410  -11.8357   -2.4052 H         1 <0>         0.1027
     61 H25        -5.6841  -12.2325   -1.8350 H         1 <0>         0.0957
     62 H26        -5.5295  -11.5357   -4.2965 H         1 <0>         0.1004
     63 H27        -6.6788  -10.5966   -3.3151 H         1 <0>         0.0483
     64 H28        -6.2613   -8.1941   -3.0070 H         1 <0>         0.0546
     65 H29        -4.5619   -7.6564   -3.0467 H         1 <0>         0.0818
     66 H30        -6.2498   -9.1126   -5.3526 H         1 <0>         0.0528
     67 H31        -4.7147   -8.2124   -5.3873 H         1 <0>         0.0919
     68 H32        -2.6951   -9.2336   -6.2715 H         1 <0>         0.1288
     69 H33        -1.7499  -10.9022   -7.8152 H         1 <0>         0.1349
     70 H34        -3.1194  -12.8100   -8.5557 H         1 <0>         0.1358
     71 H35        -6.3765  -11.3852   -6.1959 H         1 <0>         0.1305
     72 H36        -2.4230   -4.2470   -2.5791 H         1 <0>         0.3877
     73 H37        -3.1901   -6.5728   -1.1660 H         1 <0>         0.4315
@<TRIPOS>BOND
     1    1    2 1
     2    1   38 1
     3    1   39 1
     4    1   40 1
     5    2    3 1
     6    2    4 1
     7    2   41 1
     8    3   42 1
     9    3   43 1
    10    3   44 1
    11    4    5 1
    12    4   45 1
    13    4   46 1
    14    5    6 1
    15    6    7 1
    16    6   47 1
    17    6   48 1
    18    7    8 1
    19    7    9 1
    20    7   37 1
    21    9   10 1
    22    9   49 1
    23    9   50 1
    24   10   11 1
    25   10   12 1
    26   10   73 1
    27   11   51 1
    28   11   52 1
    29   11   53 1
    30   12   13 1
    31   12   54 1
    32   12   55 1
    33   13   17 2
    34   13   14 1
    35   14   28 1
    36   14   15 2
    37   15   16 1
    38   15   25 1
    39   16   17 1
    40   16   18 1
    41   18   23 ar
    42   18   19 ar
    43   19   20 ar
    44   19   56 1
    45   20   21 ar
    46   20   57 1
    47   21   22 ar
    48   21   24 1
    49   22   23 ar
    50   22   58 1
    51   23   59 1
    52   25   26 1
    53   25   60 1
    54   25   61 1
    55   26   27 1
    56   26   62 1
    57   26   63 1
    58   27   28 1
    59   27   29 1
    60   28   64 1
    61   28   65 1
    62   29   30 1
    63   29   66 1
    64   29   67 1
    65   30   35 ar
    66   30   31 ar
    67   31   32 ar
    68   31   68 1
    69   32   33 ar
    70   32   69 1
    71   33   34 ar
    72   33   70 1
    73   34   35 ar
    74   34   36 1
    75   35   71 1
    76   37   72 1
