@<TRIPOS>MOLECULE
ZINC15864594
   66    71     0     0     0
SMALL
USER_CHARGES
N-(2,3-dimethylphenyl)-(p-tolyl)BLAHcarboxamide
@<TRIPOS>ATOM
      1 C1          5.2703   -3.2458    4.0267 C.3       1 <0>        -0.1149
      2 C2          4.8375   -2.2425    2.9888 C.ar      1 <0>        -0.0796
      3 C3          5.6012   -2.0502    1.8527 C.ar      1 <0>        -0.1178
      4 C4          5.2044   -1.1296    0.9009 C.ar      1 <0>        -0.0826
      5 C5          4.0441   -0.4013    1.0852 C.ar      1 <0>        -0.1004
      6 C6          3.2832   -0.5898    2.2238 C.ar      1 <0>        -0.0996
      7 C7          3.6772   -1.5142    3.1731 C.ar      1 <0>        -0.1155
      8 C8          3.6118    0.6027    0.0478 C.3       1 <0>         0.2696
      9 H1          4.0281    1.5775    0.3021 H         1 <0>         0.1256
     10 C9          2.1153    0.6947    0.0507 C.2       1 <0>         0.0026
     11 C10         1.3289    1.7781    0.1303 C.2       1 <0>        -0.1481
     12 C11        -0.0087    1.3280    0.1655 C.2       1 <0>        -0.1880
     13 C12         0.0133   -0.0225    0.0931 C.2       1 <0>         0.0130
     14 N1          1.3044   -0.4150   -0.0038 N.pl3     1 <0>        -0.3558
     15 C13         1.8742   -1.6699   -0.1789 C.2       1 <0>         0.0519
     16 C14         2.8618   -1.9418   -1.0746 C.2       1 <0>        -0.1207
     17 C15         3.3573   -3.2617   -1.0934 C.2       1 <0>        -0.0939
     18 C16         2.7846   -4.1630   -0.2533 C.2       1 <0>        -0.1384
     19 S1          1.5595   -3.2163    0.6151 S.3       1 <0>         0.1143
     20 C17         3.1208   -5.6108   -0.0998 C.3       1 <0>        -0.0407
     21 C18         3.9927   -6.0331   -1.2922 C.3       1 <0>        -0.1125
     22 C19         5.0970   -4.9900   -1.4866 C.3       1 <0>        -0.1195
     23 C20         4.4977   -3.6859   -2.0148 C.3       1 <0>        -0.0608
     24 C21         3.3756   -0.8547   -1.9923 C.3       1 <0>         0.1669
     25 N2          4.1351    0.1859   -1.2755 N.am      1 <0>        -0.6132
     26 C22         5.2513    0.7317   -1.7976 C.2       1 <0>         0.7162
     27 O1          5.8552    1.5880   -1.1807 O.2       1 <0>        -0.5587
     28 N3          5.6981    0.3285   -3.0035 N.am      1 <0>        -0.6793
     29 C23         6.9020    0.8329   -3.5081 C.ar      1 <0>         0.1663
     30 C24         7.3662    2.0734   -3.0904 C.ar      1 <0>        -0.1351
     31 C25         8.5548    2.5682   -3.5899 C.ar      1 <0>        -0.1002
     32 C26         9.2826    1.8298   -4.5052 C.ar      1 <0>        -0.1366
     33 C27         8.8232    0.5945   -4.9230 C.ar      1 <0>        -0.0669
     34 C28         7.6376    0.0917   -4.4232 C.ar      1 <0>        -0.1210
     35 C29         7.1405   -1.2573   -4.8748 C.3       1 <0>        -0.1151
     36 C30         9.6194   -0.2067   -5.9206 C.3       1 <0>        -0.1155
     37 H2          5.9103   -2.7562    4.7607 H         1 <0>         0.0704
     38 H3          4.3916   -3.6544    4.5257 H         1 <0>         0.0653
     39 H4          5.8221   -4.0526    3.5442 H         1 <0>         0.0644
     40 H5          6.5079   -2.6190    1.7088 H         1 <0>         0.1171
     41 H6          5.8012   -0.9791    0.0134 H         1 <0>         0.1122
     42 H7          2.3790   -0.0176    2.3699 H         1 <0>         0.1185
     43 H8          3.0808   -1.6642    4.0609 H         1 <0>         0.1195
     44 H9          1.6583    2.8062    0.1612 H         1 <0>         0.1465
     45 H10        -0.8896    1.9492    0.2332 H         1 <0>         0.1486
     46 H11        -0.8485   -0.6732    0.1092 H         1 <0>         0.1684
     47 H12         3.6699   -5.7639    0.8292 H         1 <0>         0.0856
     48 H13         2.2046   -6.2012   -0.0866 H         1 <0>         0.0833
     49 H14         4.4404   -7.0064   -1.0912 H         1 <0>         0.0757
     50 H15         3.3798   -6.0887   -2.1918 H         1 <0>         0.0695
     51 H16         5.5888   -4.8017   -0.5323 H         1 <0>         0.0668
     52 H17         5.8280   -5.3662   -2.2023 H         1 <0>         0.0706
     53 H18         4.1142   -3.8418   -3.0231 H         1 <0>         0.0774
     54 H19         5.2639   -2.9108   -2.0287 H         1 <0>         0.0713
     55 H20         2.5279   -0.3885   -2.4942 H         1 <0>         0.0776
     56 H21         4.0221   -1.3063   -2.7447 H         1 <0>         0.0808
     57 H22         5.1852   -0.3114   -3.5216 H         1 <0>         0.4046
     58 H23         6.7981    2.6506   -2.3759 H         1 <0>         0.1550
     59 H24         8.9162    3.5329   -3.2657 H         1 <0>         0.1245
     60 H25        10.2121    2.2188   -4.8941 H         1 <0>         0.1214
     61 H26         6.5102   -1.1360   -5.7558 H         1 <0>         0.0699
     62 H27         7.9903   -1.8940   -5.1209 H         1 <0>         0.0748
     63 H28         6.5613   -1.7177   -4.0743 H         1 <0>         0.0580
     64 H29        10.3223   -0.8502   -5.3915 H         1 <0>         0.0707
     65 H30         8.9434   -0.8197   -6.5167 H         1 <0>         0.0678
     66 H31        10.1685    0.4703   -6.5750 H         1 <0>         0.0676
@<TRIPOS>BOND
     1    1    2 1
     2    1   37 1
     3    1   38 1
     4    1   39 1
     5    2    7 ar
     6    2    3 ar
     7    3    4 ar
     8    3   40 1
     9    4    5 ar
    10    4   41 1
    11    5    6 ar
    12    5    8 1
    13    6    7 ar
    14    6   42 1
    15    7   43 1
    16    8    9 1
    17    8   25 1
    18    8   10 1
    19   10   14 1
    20   10   11 2
    21   11   12 1
    22   11   44 1
    23   12   13 2
    24   12   45 1
    25   13   14 1
    26   13   46 1
    27   14   15 1
    28   15   19 1
    29   15   16 2
    30   16   17 1
    31   16   24 1
    32   17   23 1
    33   17   18 2
    34   18   19 1
    35   18   20 1
    36   20   21 1
    37   20   47 1
    38   20   48 1
    39   21   22 1
    40   21   49 1
    41   21   50 1
    42   22   23 1
    43   22   51 1
    44   22   52 1
    45   23   53 1
    46   23   54 1
    47   24   25 1
    48   24   55 1
    49   24   56 1
    50   25   26 am
    51   26   27 2
    52   26   28 am
    53   28   29 1
    54   28   57 1
    55   29   34 ar
    56   29   30 ar
    57   30   31 ar
    58   30   58 1
    59   31   32 ar
    60   31   59 1
    61   32   33 ar
    62   32   60 1
    63   33   34 ar
    64   33   36 1
    65   34   35 1
    66   35   61 1
    67   35   62 1
    68   35   63 1
    69   36   64 1
    70   36   65 1
    71   36   66 1
