@<TRIPOS>MOLECULE
ZINC39537219
   59    61     0     0     0
SMALL
USER_CHARGES

@<TRIPOS>ATOM
      1 C1         -0.0187    1.5258    0.0104 C.3       1 <0>        -0.1669
      2 C2          0.0021   -0.0041    0.0020 C.3       1 <0>         0.1345
      3 C3          0.7421   -0.5109    1.2415 C.3       1 <0>        -0.1680
      4 N1         -1.3723   -0.5112    0.0124 N.am      1 <0>        -0.6978
      5 C4         -1.6432   -1.7342   -0.4849 C.2       1 <0>         0.5075
      6 O1         -0.7491   -2.4150   -0.9410 O.2       1 <0>        -0.5224
      7 C5         -3.0570   -2.2558   -0.4742 C.3       1 <0>         0.0050
      8 H1         -3.7037   -1.5869   -1.0420 H         1 <0>         0.1666
      9 C6         -3.5633   -2.3694    0.9757 C.3       1 <0>        -0.1712
     10 C7         -3.9185   -3.8622    1.1635 C.3       1 <0>         0.0754
     11 H2         -3.0939   -4.3988    1.6329 H         1 <0>         0.1198
     12 C8         -4.1347   -4.3525   -0.2902 C.3       1 <0>         0.0019
     13 N2         -3.0976   -3.6133   -1.0599 N.4       1 <0>        -0.3802
     14 C9         -3.4691   -3.5416   -2.4794 C.3       1 <0>         0.0524
     15 C10        -3.3865   -4.9167   -3.0903 C.ar      1 <0>        -0.1479
     16 C11        -2.2020   -5.3521   -3.6552 C.ar      1 <0>        -0.0853
     17 C12        -2.1255   -6.6132   -4.2157 C.ar      1 <0>        -0.0989
     18 C13        -3.2335   -7.4397   -4.2123 C.ar      1 <0>        -0.0761
     19 C14        -4.4189   -7.0047   -3.6474 C.ar      1 <0>        -0.0359
     20 C15        -4.4931   -5.7444   -3.0809 C.ar      1 <0>        -0.0870
     21 Cl1        -5.8108   -8.0422   -3.6427 Cl        1 <0>        -0.0411
     22 N3         -5.1482   -4.0085    1.9537 N.3       1 <0>        -0.6646
     23 C16        -4.8525   -4.0086    3.3926 C.3       1 <0>         0.1015
     24 C17        -6.1351   -4.1602    4.1691 C.ar      1 <0>        -0.1010
     25 C18        -6.8515   -3.0394    4.5461 C.ar      1 <0>        -0.0802
     26 C19        -8.0279   -3.1784    5.2582 C.ar      1 <0>        -0.1167
     27 C20        -8.4885   -4.4383    5.5931 C.ar      1 <0>        -0.0621
     28 C21        -7.7728   -5.5587    5.2154 C.ar      1 <0>        -0.1785
     29 C22        -6.5983   -5.4198    4.4994 C.ar      1 <0>        -0.0440
     30 C23        -8.2746   -6.9319    5.5808 C.3       1 <0>         0.5066
     31 F1         -9.4721   -6.8161    6.2948 F         1 <0>        -0.1739
     32 F2         -8.4965   -7.6729    4.4151 F         1 <0>        -0.1749
     33 F3         -7.3210   -7.5816    6.3719 F         1 <0>        -0.1744
     34 H3          1.0039    1.9031    0.0027 H         1 <0>         0.0844
     35 H4         -0.5459    1.8868   -0.8726 H         1 <0>         0.0660
     36 H5         -0.5289    1.8773    0.9072 H         1 <0>         0.0664
     37 H6          0.5123   -0.3556   -0.8948 H         1 <0>         0.0973
     38 H7          0.2319   -0.1594    2.1383 H         1 <0>         0.0619
     39 H8          0.7568   -1.6008    1.2356 H         1 <0>         0.0604
     40 H9          1.7647   -0.1336    1.2338 H         1 <0>         0.0781
     41 H10        -2.0874    0.0333    0.3772 H         1 <0>         0.4089
     42 H11        -2.7795   -2.0762    1.6742 H         1 <0>         0.1112
     43 H12        -4.4484   -1.7492    1.1170 H         1 <0>         0.1179
     44 H13        -3.9736   -5.4282   -0.3614 H         1 <0>         0.1458
     45 H14        -5.1321   -4.0878   -0.6412 H         1 <0>         0.1410
     46 H15        -4.4877   -3.1644   -2.5698 H         1 <0>         0.1392
     47 H16        -2.7857   -2.8709   -3.0003 H         1 <0>         0.1388
     48 H17        -1.3363   -4.7064   -3.6587 H         1 <0>         0.1399
     49 H18        -1.2000   -6.9527   -4.6568 H         1 <0>         0.1466
     50 H19        -3.1738   -8.4248   -4.6510 H         1 <0>         0.1467
     51 H20        -5.4170   -5.4059   -2.6357 H         1 <0>         0.1414
     52 H21        -5.8150   -3.2877    1.7216 H         1 <0>         0.3559
     53 H22        -4.1859   -4.8387    3.6265 H         1 <0>         0.0936
     54 H23        -4.3719   -3.0689    3.6648 H         1 <0>         0.0548
     55 H24        -6.4917   -2.0553    4.2845 H         1 <0>         0.1295
     56 H25        -8.5871   -2.3029    5.5533 H         1 <0>         0.1395
     57 H26        -9.4074   -4.5469    6.1501 H         1 <0>         0.1430
     58 H27        -6.0410   -6.2955    4.2010 H         1 <0>         0.1357
     59 H28        -2.2009   -4.0641   -0.9559 H         1 <0>         0.4341
@<TRIPOS>BOND
     1    1    2 1
     2    1   34 1
     3    1   35 1
     4    1   36 1
     5    2    3 1
     6    2    4 1
     7    2   37 1
     8    3   38 1
     9    3   39 1
    10    3   40 1
    11    4    5 am
    12    4   41 1
    13    5    6 2
    14    5    7 1
    15    7    8 1
    16    7   13 1
    17    7    9 1
    18    9   10 1
    19    9   42 1
    20    9   43 1
    21   10   11 1
    22   10   12 1
    23   10   22 1
    24   12   13 1
    25   12   44 1
    26   12   45 1
    27   13   14 1
    28   13   59 1
    29   14   15 1
    30   14   46 1
    31   14   47 1
    32   15   20 ar
    33   15   16 ar
    34   16   17 ar
    35   16   48 1
    36   17   18 ar
    37   17   49 1
    38   18   19 ar
    39   18   50 1
    40   19   20 ar
    41   19   21 1
    42   20   51 1
    43   22   23 1
    44   22   52 1
    45   23   24 1
    46   23   53 1
    47   23   54 1
    48   24   29 ar
    49   24   25 ar
    50   25   26 ar
    51   25   55 1
    52   26   27 ar
    53   26   56 1
    54   27   28 ar
    55   27   57 1
    56   28   29 ar
    57   28   30 1
    58   29   58 1
    59   30   31 1
    60   30   32 1
    61   30   33 1
