@<TRIPOS>MOLECULE
ZINC19732853
   37    39     0     0     0
SMALL
USER_CHARGES
2-amino-4-(5-ethyl-2-thienyl)-5,6,7,8-tetrahydroquinoline-3-carbonitrile
@<TRIPOS>ATOM
      1 C1          4.1063    6.7907    2.4945 C.3       1 <0>        -0.1502
      2 C2          5.2944    6.1361    1.7869 C.3       1 <0>        -0.0455
      3 C3          4.7897    5.2009    0.7184 C.2       1 <0>        -0.1277
      4 C4          4.5218    5.4618   -0.5888 C.2       1 <0>        -0.1644
      5 C5          4.0634    4.4463   -1.3949 C.2       1 <0>        -0.1145
      6 C6          3.8913    3.1988   -0.8501 C.2       1 <0>        -0.1456
      7 S1          4.3823    3.4674    0.8453 S.3       1 <0>         0.0806
      8 C7          3.4182    1.9612   -1.4949 C.ar      1 <0>         0.1292
      9 C8          2.2061    1.3661   -1.1039 C.ar      1 <0>        -0.1735
     10 C9          1.7894    0.2159   -1.7262 C.ar      1 <0>         0.2263
     11 N1          2.5251   -0.3383   -2.6861 N.ar      1 <0>        -0.5504
     12 C10         3.6717    0.1694   -3.0962 C.ar      1 <0>         0.4680
     13 C11         4.1718    1.3485   -2.5186 C.ar      1 <0>        -0.1472
     14 C12         5.4128    1.9130   -2.9567 C.1       1 <0>         0.2611
     15 N2          6.3973    2.3608   -3.3042 N.1       1 <0>        -0.4147
     16 N3          4.3854   -0.4627   -4.0997 N.pl3     1 <0>        -0.8600
     17 C13         0.4965   -0.4719   -1.3647 C.3       1 <0>        -0.0753
     18 C14         0.0021   -0.0041    0.0020 C.3       1 <0>        -0.1231
     19 C15        -0.0187    1.5291    0.0104 C.3       1 <0>        -0.1224
     20 C16         1.4248    2.0283   -0.0007 C.3       1 <0>        -0.0688
     21 H1          4.4748    7.4733    3.2744 H         1 <0>         0.0664
     22 H2          3.4794    6.0126    2.9545 H         1 <0>         0.0592
     23 H3          3.5106    7.3568    1.7633 H         1 <0>         0.0603
     24 H4          5.9213    6.9142    1.3269 H         1 <0>         0.0896
     25 H5          5.8902    5.5700    2.5181 H         1 <0>         0.0816
     26 H6          4.6675    6.4542   -0.9892 H         1 <0>         0.1363
     27 H7          3.8429    4.6272   -2.4366 H         1 <0>         0.1328
     28 H8          5.3417   -0.0416   -4.4435 H         1 <0>         0.4308
     29 H9          3.9963   -1.3862   -4.5534 H         1 <0>         0.4346
     30 H10        -0.2679   -0.2360   -2.1198 H         1 <0>         0.0926
     31 H11         0.6564   -1.5597   -1.3323 H         1 <0>         0.0921
     32 H12        -1.0107   -0.3952    0.1791 H         1 <0>         0.0771
     33 H13         0.6805   -0.3755    0.7842 H         1 <0>         0.0695
     34 H14        -0.5507    1.8934   -0.8808 H         1 <0>         0.0685
     35 H15        -0.5336    1.8839    0.9154 H         1 <0>         0.0733
     36 H16         1.8898    1.7955    0.9686 H         1 <0>         0.0775
     37 H17         1.4239    3.1175   -0.1547 H         1 <0>         0.0759
@<TRIPOS>BOND
     1    1    2 1
     2    1   21 1
     3    1   22 1
     4    1   23 1
     5    2    3 1
     6    2   24 1
     7    2   25 1
     8    3    7 1
     9    3    4 2
    10    4    5 1
    11    4   26 1
    12    5    6 2
    13    5   27 1
    14    6    7 1
    15    6    8 1
    16    8   13 ar
    17    8    9 ar
    18    9   20 1
    19    9   10 ar
    20   10   11 ar
    21   10   17 1
    22   11   12 ar
    23   12   13 ar
    24   12   16 1
    25   13   14 1
    26   14   15 3
    27   16   28 1
    28   16   29 1
    29   17   18 1
    30   17   30 1
    31   17   31 1
    32   18   19 1
    33   18   32 1
    34   18   33 1
    35   19   20 1
    36   19   34 1
    37   19   35 1
    38   20   36 1
    39   20   37 1
