@<TRIPOS>MOLECULE
ZINC37768191
   37    38     0     0     0
SMALL
USER_CHARGES

@<TRIPOS>ATOM
      1 C1          0.0010    1.4797    0.0285 C.3       1 <0>        -0.1667
      2 C2          0.0102   -0.0502    0.0167 C.3       1 <0>         0.1887
      3 H1          0.5195   -0.4036   -0.8798 H         1 <0>         0.0928
      4 C3          0.7328   -0.5576    1.2380 C.ar      1 <0>        -0.0764
      5 C4          0.0795   -0.6105    2.4552 C.ar      1 <0>        -0.1069
      6 C5          0.7417   -1.0762    3.5754 C.ar      1 <0>        -0.0856
      7 C6          2.0583   -1.4894    3.4785 C.ar      1 <0>        -0.0897
      8 C7          2.7115   -1.4363    2.2604 C.ar      1 <0>        -0.0860
      9 C8          2.0469   -0.9753    1.1396 C.ar      1 <0>        -0.1022
     10 Br1         2.9649   -2.1261    5.0110 Br        1 <0>        -0.0467
     11 N1         -1.3680   -0.5469    0.0232 N.pl3     1 <0>        -0.7367
     12 C9         -2.0705   -0.6754   -1.1788 C.ar      1 <0>         0.2325
     13 C10        -1.4599   -0.3377   -2.3801 C.ar      1 <0>        -0.1911
     14 C11        -2.1528   -0.4646   -3.5689 C.ar      1 <0>        -0.0800
     15 C12        -3.4561   -0.9278   -3.5666 C.ar      1 <0>         0.0042
     16 C13        -4.0722   -1.2668   -2.3668 C.ar      1 <0>         0.1669
     17 C14        -3.3760   -1.1458   -1.1731 C.ar      1 <0>        -0.1841
     18 N2         -5.3921   -1.7348   -2.3643 N.am      1 <0>        -0.6697
     19 C15        -6.1532   -1.5986   -1.2604 C.2       1 <0>         0.5127
     20 O1         -5.7308   -0.9826   -0.3047 O.2       1 <0>        -0.5207
     21 C16        -7.5292   -2.2115   -1.2136 C.3       1 <0>        -0.1725
     22 F1         -4.1311   -1.0504   -4.7304 F         1 <0>        -0.1444
     23 H2          1.0265    1.8493    0.0236 H         1 <0>         0.0684
     24 H3         -0.5216    1.8467   -0.8549 H         1 <0>         0.0678
     25 H4         -0.5083    1.8331    0.9250 H         1 <0>         0.0626
     26 H5         -0.9483   -0.2876    2.5308 H         1 <0>         0.1306
     27 H6          0.2314   -1.1172    4.5264 H         1 <0>         0.1352
     28 H7          3.7394   -1.7588    2.1843 H         1 <0>         0.1360
     29 H8          2.5556   -0.9377    0.1876 H         1 <0>         0.1351
     30 H9         -1.7932   -0.7866    0.8615 H         1 <0>         0.4018
     31 H10        -0.4426    0.0249   -2.3849 H         1 <0>         0.1325
     32 H11        -1.6760   -0.2014   -4.5015 H         1 <0>         0.1389
     33 H12        -3.8506   -1.4130   -0.2405 H         1 <0>         0.1523
     34 H13        -5.7585   -2.1571   -3.1570 H         1 <0>         0.4162
     35 H14        -7.4619   -3.2258   -0.8201 H         1 <0>         0.1004
     36 H15        -8.1717   -1.6131   -0.5676 H         1 <0>         0.0997
     37 H16        -7.9492   -2.2389   -2.2190 H         1 <0>         0.0843
@<TRIPOS>BOND
     1    1    2 1
     2    1   23 1
     3    1   24 1
     4    1   25 1
     5    2    3 1
     6    2    4 1
     7    2   11 1
     8    4    9 ar
     9    4    5 ar
    10    5    6 ar
    11    5   26 1
    12    6    7 ar
    13    6   27 1
    14    7    8 ar
    15    7   10 1
    16    8    9 ar
    17    8   28 1
    18    9   29 1
    19   11   12 1
    20   11   30 1
    21   12   17 ar
    22   12   13 ar
    23   13   14 ar
    24   13   31 1
    25   14   15 ar
    26   14   32 1
    27   15   16 ar
    28   15   22 1
    29   16   17 ar
    30   16   18 1
    31   17   33 1
    32   18   19 am
    33   18   34 1
    34   19   20 2
    35   19   21 1
    36   21   35 1
    37   21   36 1
    38   21   37 1
