@<TRIPOS>MOLECULE
ZINC65006940
   72    74     0     0     0
SMALL
USER_CHARGES

@<TRIPOS>ATOM
      1 C1          3.6956   -5.0264   -3.3342 C.3       1 <0>        -0.1885
      2 C2          2.8641   -6.1467   -2.7062 C.3       1 <0>        -0.0160
      3 N1          1.4875   -5.6776   -2.4988 N.4       1 <0>        -0.3856
      4 C3          0.8728   -5.3738   -3.7980 C.3       1 <0>        -0.0152
      5 C4         -0.5184   -4.7766   -3.5767 C.3       1 <0>        -0.1893
      6 C5          0.7102   -6.7243   -1.8220 C.3       1 <0>        -0.0106
      7 C6          1.2757   -6.9527   -0.4188 C.3       1 <0>        -0.1624
      8 C7          0.4661   -8.0429    0.2861 C.3       1 <0>         0.1229
      9 N2          1.0076   -8.2616    1.6297 N.am      1 <0>        -0.7382
     10 C8          0.4490   -9.1827    2.4396 C.2       1 <0>         0.5221
     11 O1         -0.5019   -9.8305    2.0562 O.2       1 <0>        -0.5202
     12 C9          1.0060   -9.4077    3.8217 C.3       1 <0>        -0.1056
     13 H1          0.9439   -8.4818    4.3936 H         1 <0>         0.1008
     14 C10         2.4683   -9.8455    3.7172 C.3       1 <0>        -0.1483
     15 C11         0.1964  -10.4979    4.5266 C.3       1 <0>        -0.0677
     16 C12        -1.2665  -10.0604    4.6295 C.3       1 <0>        -0.1393
     17 C13        -2.0805  -11.1688    5.3046 C.3       1 <0>         0.1165
     18 N3         -1.4562  -11.4955    6.5939 N.am      1 <0>        -0.6056
     19 C14        -0.0286  -11.8421    6.6200 C.3       1 <0>         0.0995
     20 C15         0.7623  -10.7261    5.9301 C.3       1 <0>        -0.1334
     21 C16        -2.1793  -11.4772    7.7312 C.2       1 <0>         0.6157
     22 O2         -3.3721  -11.2392    7.6901 O.2       1 <0>        -0.5151
     23 C17        -1.5291  -11.7440    9.0172 C.2       1 <0>        -0.2908
     24 C18        -1.9691  -12.5051   10.0931 C.2       1 <0>         0.1576
     25 N4         -1.1702  -12.5678   11.1255 N.2       1 <0>        -0.5137
     26 C19        -0.0069  -11.9380   11.1385 C.2       1 <0>         0.1003
     27 S1          0.0520  -11.1874    9.6333 S.3       1 <0>         0.1796
     28 C20         1.0033  -11.9061   12.2161 C.ar      1 <0>        -0.0411
     29 C21         2.1811  -11.1746   12.0509 C.ar      1 <0>        -0.0632
     30 C22         3.1205  -11.1483   13.0598 C.ar      1 <0>        -0.1517
     31 C23         2.8976  -11.8468   14.2362 C.ar      1 <0>         0.1257
     32 C24         1.7301  -12.5746   14.4055 C.ar      1 <0>        -0.1535
     33 C25         0.7812  -12.6027   13.4056 C.ar      1 <0>        -0.0342
     34 F1          3.8218  -11.8183   15.2212 F         1 <0>        -0.1300
     35 C26        -3.2959  -13.2193   10.0710 C.3       1 <0>        -0.0948
     36 H2          4.7376   -5.3396   -3.3985 H         1 <0>         0.1064
     37 H3          3.3186   -4.8107   -4.3339 H         1 <0>         0.0816
     38 H4          3.6229   -4.1306   -2.7174 H         1 <0>         0.0798
     39 H5          2.8573   -7.0105   -3.3711 H         1 <0>         0.1302
     40 H6          3.2999   -6.4292   -1.7479 H         1 <0>         0.1305
     41 H7          1.4943   -4.6577   -4.3355 H         1 <0>         0.1334
     42 H8          0.7862   -6.2900   -4.3820 H         1 <0>         0.1301
     43 H9         -1.1680   -5.5264   -3.1252 H         1 <0>         0.0811
     44 H10        -0.4426   -3.9148   -2.9136 H         1 <0>         0.0798
     45 H11        -0.9356   -4.4631   -4.5337 H         1 <0>         0.1071
     46 H12        -0.3316   -6.4124   -1.7476 H         1 <0>         0.1371
     47 H13         0.7723   -7.6501   -2.3939 H         1 <0>         0.1343
     48 H14         2.3175   -7.2646   -0.4933 H         1 <0>         0.0941
     49 H15         1.2136   -6.0269    0.1531 H         1 <0>         0.0943
     50 H16        -0.5757   -7.7310    0.3605 H         1 <0>         0.0781
     51 H17         0.5282   -8.9687   -0.2858 H         1 <0>         0.0779
     52 H18         1.7681   -7.7435    1.9363 H         1 <0>         0.4026
     53 H19         2.8712  -10.0082    4.7168 H         1 <0>         0.0774
     54 H20         2.5304  -10.7713    3.1453 H         1 <0>         0.0641
     55 H21         3.0451   -9.0688    3.2150 H         1 <0>         0.0574
     56 H22         0.2590  -11.4237    3.9548 H         1 <0>         0.0835
     57 H23        -1.3326   -9.1481    5.2222 H         1 <0>         0.0613
     58 H24        -1.6620   -9.8755    3.6308 H         1 <0>         0.1020
     59 H25        -3.1011  -10.8237    5.4698 H         1 <0>         0.0964
     60 H26        -2.0903  -12.0540    4.6687 H         1 <0>         0.0730
     61 H27         0.3045  -11.9412    7.6531 H         1 <0>         0.0851
     62 H28         0.1289  -12.7822    6.0913 H         1 <0>         0.0783
     63 H29         1.8108  -11.0150    5.8571 H         1 <0>         0.0848
     64 H30         0.6771   -9.8075    6.5106 H         1 <0>         0.0716
     65 H31         2.3560  -10.6307   11.1344 H         1 <0>         0.1367
     66 H32         4.0319  -10.5828   12.9331 H         1 <0>         0.1470
     67 H33         1.5615  -13.1170   15.3241 H         1 <0>         0.1474
     68 H34        -0.1303  -13.1662   13.5404 H         1 <0>         0.1484
     69 H35        -3.1624  -14.2215    9.6639 H         1 <0>         0.0818
     70 H36        -3.6882  -13.2885   11.0856 H         1 <0>         0.0834
     71 H37        -3.9969  -12.6643    9.4475 H         1 <0>         0.0931
     72 H38         1.4983   -4.8450   -1.9289 H         1 <0>         0.4224
@<TRIPOS>BOND
     1    1    2 1
     2    1   36 1
     3    1   37 1
     4    1   38 1
     5    2    3 1
     6    2   39 1
     7    2   40 1
     8    3    4 1
     9    3    6 1
    10    3   72 1
    11    4    5 1
    12    4   41 1
    13    4   42 1
    14    5   43 1
    15    5   44 1
    16    5   45 1
    17    6    7 1
    18    6   46 1
    19    6   47 1
    20    7    8 1
    21    7   48 1
    22    7   49 1
    23    8    9 1
    24    8   50 1
    25    8   51 1
    26    9   10 am
    27    9   52 1
    28   10   11 2
    29   10   12 1
    30   12   13 1
    31   12   14 1
    32   12   15 1
    33   14   53 1
    34   14   54 1
    35   14   55 1
    36   15   20 1
    37   15   16 1
    38   15   56 1
    39   16   17 1
    40   16   57 1
    41   16   58 1
    42   17   18 1
    43   17   59 1
    44   17   60 1
    45   18   19 1
    46   18   21 am
    47   19   20 1
    48   19   61 1
    49   19   62 1
    50   20   63 1
    51   20   64 1
    52   21   22 2
    53   21   23 1
    54   23   27 1
    55   23   24 2
    56   24   25 1
    57   24   35 1
    58   25   26 2
    59   26   27 1
    60   26   28 1
    61   28   33 ar
    62   28   29 ar
    63   29   30 ar
    64   29   65 1
    65   30   31 ar
    66   30   66 1
    67   31   32 ar
    68   31   34 1
    69   32   33 ar
    70   32   67 1
    71   33   68 1
    72   35   69 1
    73   35   70 1
    74   35   71 1
