@<TRIPOS>MOLECULE
ZINC36306735
   69    72     0     0     0
SMALL
USER_CHARGES

@<TRIPOS>ATOM
      1 C1         -6.4267   -1.1850    5.0773 C.3       1 <0>        -0.1535
      2 C2         -7.0552   -2.2750    4.2067 C.3       1 <0>         0.0835
      3 C3         -8.5785   -2.1345    4.2341 C.3       1 <0>        -0.1778
      4 O1         -6.5884   -2.1394    2.8629 O.3       1 <0>        -0.3686
      5 C4         -6.5205   -3.3725    2.1440 C.3       1 <0>         0.0343
      6 C5         -6.0110   -3.1086    0.7256 C.3       1 <0>         0.0871
      7 H1         -5.0586   -2.5807    0.7740 H         1 <0>         0.1305
      8 C6         -5.8197   -4.4400   -0.0036 C.3       1 <0>        -0.0468
      9 N1         -5.2183   -4.1946   -1.3212 N.4       1 <0>        -0.3801
     10 C7         -3.8657   -3.6485   -1.1481 C.3       1 <0>         0.0837
     11 C8         -3.2981   -3.2766   -2.4936 C.2       1 <0>        -0.1098
     12 C9         -3.3621   -2.0608   -3.0657 C.2       1 <0>        -0.1289
     13 C10        -2.7069   -2.1607   -4.3145 C.2       1 <0>        -0.2130
     14 C11        -2.2816   -3.4315   -4.4309 C.2       1 <0>         0.0100
     15 O2         -2.6375   -4.1014   -3.3226 O.3       1 <0>        -0.1704
     16 C12        -5.1447   -5.4572   -2.0686 C.3       1 <0>         0.0786
     17 C13        -6.5384   -5.9421   -2.3740 C.2       1 <0>        -0.2898
     18 C14        -7.2699   -6.8864   -1.6291 C.2       1 <0>         0.1508
     19 N2         -8.4403   -7.0474   -2.2088 N.2       1 <0>        -0.2298
     20 N3         -8.4912   -6.2158   -3.3346 N.pl3     1 <0>        -0.3496
     21 C15        -7.3148   -5.5420   -3.4133 C.2       1 <0>         0.2924
     22 O3         -6.9750   -4.6333   -4.3627 O.3       1 <0>        -0.2298
     23 C16        -6.4444   -5.0941   -5.5262 C.ar      1 <0>         0.0582
     24 C17        -6.3623   -6.4587   -5.7601 C.ar      1 <0>        -0.1610
     25 C18        -5.8230   -6.9248   -6.9438 C.ar      1 <0>        -0.0870
     26 C19        -5.3646   -6.0328   -7.8956 C.ar      1 <0>        -0.1002
     27 C20        -5.4441   -4.6716   -7.6665 C.ar      1 <0>        -0.1153
     28 C21        -5.9886   -4.1989   -6.4861 C.ar      1 <0>         0.0959
     29 F1         -6.0715   -2.8688   -6.2642 F         1 <0>        -0.1239
     30 C22        -9.6186   -6.0901   -4.2615 C.3       1 <0>         0.0835
     31 C23        -6.8022   -7.5802   -0.4032 C.ar      1 <0>        -0.0437
     32 C24        -5.5061   -8.0871   -0.3382 C.ar      1 <0>        -0.1069
     33 C25        -5.0761   -8.7310    0.8045 C.ar      1 <0>        -0.1128
     34 C26        -5.9296   -8.8739    1.8835 C.ar      1 <0>        -0.0960
     35 C27        -7.2174   -8.3725    1.8243 C.ar      1 <0>        -0.1112
     36 C28        -7.6558   -7.7218    0.6888 C.ar      1 <0>        -0.0870
     37 O4         -6.9625   -2.3107    0.0185 O.3       1 <0>        -0.5408
     38 H2         -6.7828   -1.2885    6.1023 H         1 <0>         0.0757
     39 H3         -5.3415   -1.2851    5.0577 H         1 <0>         0.0629
     40 H4         -6.7082   -0.2050    4.6920 H         1 <0>         0.0672
     41 H5         -6.7737   -3.2550    4.5919 H         1 <0>         0.0627
     42 H6         -9.0262   -2.9110    3.6138 H         1 <0>         0.0535
     43 H7         -8.9345   -2.2379    5.2591 H         1 <0>         0.0715
     44 H8         -8.8599   -1.1545    3.8488 H         1 <0>         0.0676
     45 H9         -5.8390   -4.0534    2.6540 H         1 <0>         0.0685
     46 H10        -7.5131   -3.8203    2.0960 H         1 <0>         0.0622
     47 H11        -5.1627   -5.0836    0.5815 H         1 <0>         0.1448
     48 H12        -6.7865   -4.9270   -0.1304 H         1 <0>         0.1371
     49 H13        -3.9099   -2.7623   -0.5149 H         1 <0>         0.1581
     50 H14        -3.2283   -4.3983   -0.6795 H         1 <0>         0.1466
     51 H15        -3.8257   -1.1780   -2.6509 H         1 <0>         0.1615
     52 H16        -2.5737   -1.3687   -5.0366 H         1 <0>         0.1622
     53 H17        -1.7420   -3.8425   -5.2714 H         1 <0>         0.2153
     54 H18        -4.6034   -5.2964   -3.0010 H         1 <0>         0.1357
     55 H19        -4.6232   -6.2039   -1.4699 H         1 <0>         0.1426
     56 H20        -6.7193   -7.1566   -5.0173 H         1 <0>         0.1336
     57 H21        -5.7592   -7.9875   -7.1256 H         1 <0>         0.1418
     58 H22        -4.9433   -6.4001   -8.8197 H         1 <0>         0.1465
     59 H23        -5.0850   -3.9770   -8.4115 H         1 <0>         0.1538
     60 H24       -10.2393   -5.2441   -3.9662 H         1 <0>         0.0954
     61 H25        -9.2423   -5.9294   -5.2718 H         1 <0>         0.0946
     62 H26       -10.2133   -7.0033   -4.2363 H         1 <0>         0.1103
     63 H27        -4.8391   -7.9767   -1.1804 H         1 <0>         0.1265
     64 H28        -4.0716   -9.1244    0.8559 H         1 <0>         0.1342
     65 H29        -5.5894   -9.3790    2.7754 H         1 <0>         0.1328
     66 H30        -7.8798   -8.4871    2.6696 H         1 <0>         0.1339
     67 H31        -8.6600   -7.3268    0.6453 H         1 <0>         0.1299
     68 H32        -7.8351   -2.7192   -0.0632 H         1 <0>         0.3867
     69 H33        -5.7850   -3.5341   -1.8318 H         1 <0>         0.4292
@<TRIPOS>BOND
     1    1    2 1
     2    1   38 1
     3    1   39 1
     4    1   40 1
     5    2    3 1
     6    2    4 1
     7    2   41 1
     8    3   42 1
     9    3   43 1
    10    3   44 1
    11    4    5 1
    12    5    6 1
    13    5   45 1
    14    5   46 1
    15    6    7 1
    16    6    8 1
    17    6   37 1
    18    8    9 1
    19    8   47 1
    20    8   48 1
    21    9   10 1
    22    9   16 1
    23    9   69 1
    24   10   11 1
    25   10   49 1
    26   10   50 1
    27   11   15 1
    28   11   12 2
    29   12   13 1
    30   12   51 1
    31   13   14 2
    32   13   52 1
    33   14   15 1
    34   14   53 1
    35   16   17 1
    36   16   54 1
    37   16   55 1
    38   17   21 2
    39   17   18 1
    40   18   19 2
    41   18   31 1
    42   19   20 1
    43   20   21 1
    44   20   30 1
    45   21   22 1
    46   22   23 1
    47   23   28 ar
    48   23   24 ar
    49   24   25 ar
    50   24   56 1
    51   25   26 ar
    52   25   57 1
    53   26   27 ar
    54   26   58 1
    55   27   28 ar
    56   27   59 1
    57   28   29 1
    58   30   60 1
    59   30   61 1
    60   30   62 1
    61   31   36 ar
    62   31   32 ar
    63   32   33 ar
    64   32   63 1
    65   33   34 ar
    66   33   64 1
    67   34   35 ar
    68   34   65 1
    69   35   36 ar
    70   35   66 1
    71   36   67 1
    72   37   68 1
