@<TRIPOS>MOLECULE
ZINC07664635
   60    63     0     0     0
SMALL
USER_CHARGES
N-(2,5-dimethylphenyl)-2-phenyl-2-[1-[4-(1,2,4-triazol-1-yl)phenyl]ethylamino]acetamide
@<TRIPOS>ATOM
      1 C1          3.6855   -2.0639    1.4191 C.3       1 <0>        -0.1186
      2 C2          3.6242   -0.7035    0.7737 C.ar      1 <0>        -0.0681
      3 C3          4.7753   -0.1251    0.2706 C.ar      1 <0>        -0.1172
      4 C4          4.7234    1.1233   -0.3214 C.ar      1 <0>        -0.0934
      5 C5          3.5209    1.7969   -0.4121 C.ar      1 <0>        -0.1076
      6 C6          2.3633    1.2187    0.0917 C.ar      1 <0>         0.1252
      7 C7          2.4197   -0.0332    0.6905 C.ar      1 <0>        -0.1214
      8 N1          1.1435    1.8984    0.0013 N.am      1 <0>        -0.6316
      9 C8         -0.0145    1.2089    0.0119 C.2       1 <0>         0.5079
     10 O1          0.0016   -0.0038   -0.0014 O.2       1 <0>        -0.5064
     11 C9         -1.3294    1.9448    0.0341 C.3       1 <0>         0.0659
     12 H1         -1.4050    2.5803   -0.8482 H         1 <0>         0.1727
     13 C10        -1.4075    2.7966    1.2748 C.ar      1 <0>        -0.1471
     14 C11        -1.7525    2.2249    2.4852 C.ar      1 <0>        -0.1149
     15 C12        -1.8199    3.0054    3.6241 C.ar      1 <0>        -0.0963
     16 C13        -1.5515    4.3595    3.5508 C.ar      1 <0>        -0.0834
     17 C14        -1.2111    4.9321    2.3396 C.ar      1 <0>        -0.0993
     18 C15        -1.1395    4.1508    1.2015 C.ar      1 <0>        -0.0892
     19 C16        -3.6550    1.5681   -0.5246 C.3       1 <0>         0.0892
     20 H2         -3.3899    2.2587   -1.3251 H         1 <0>         0.1484
     21 C17        -4.4049    2.3243    0.5740 C.3       1 <0>        -0.1802
     22 C18        -4.5365    0.4764   -1.0744 C.ar      1 <0>        -0.1552
     23 C19        -4.6614   -0.7193   -0.3911 C.ar      1 <0>        -0.0894
     24 C20        -5.4730   -1.7196   -0.8896 C.ar      1 <0>        -0.1255
     25 C21        -6.1551   -1.5278   -2.0836 C.ar      1 <0>         0.1917
     26 C22        -6.0231   -0.3283   -2.7702 C.ar      1 <0>        -0.1049
     27 C23        -5.2142    0.6702   -2.2640 C.ar      1 <0>        -0.0578
     28 N2         -6.9758   -2.5430   -2.5946 N.pl3     1 <0>        -0.3492
     29 C24        -7.1975   -3.7544   -2.0482 C.2       1 <0>         0.2688
     30 N3         -8.0227   -4.4054   -2.8275 N.2       1 <0>        -0.5237
     31 C25        -8.3419   -3.6514   -3.8788 C.2       1 <0>         0.2251
     32 N4         -7.7259   -2.5022   -3.7813 N.2       1 <0>        -0.3118
     33 C26         3.4654    3.1579   -1.0566 C.3       1 <0>        -0.1195
     34 H3          3.8774   -1.9516    2.4861 H         1 <0>         0.0750
     35 H4          2.7358   -2.5785    1.2729 H         1 <0>         0.0679
     36 H5          4.4876   -2.6457    0.9649 H         1 <0>         0.0727
     37 H6          5.7168   -0.6495    0.3406 H         1 <0>         0.1304
     38 H7          5.6241    1.5724   -0.7130 H         1 <0>         0.1337
     39 H8          1.5219   -0.4835    1.0875 H         1 <0>         0.1422
     40 H9          1.1314    2.8657   -0.0689 H         1 <0>         0.4180
     41 H10        -1.9662    1.1677    2.5416 H         1 <0>         0.1214
     42 H11        -2.0855    2.5580    4.5705 H         1 <0>         0.1398
     43 H12        -1.6074    4.9699    4.4400 H         1 <0>         0.1397
     44 H13        -1.0014    5.9900    2.2824 H         1 <0>         0.1417
     45 H14        -0.8739    4.5982    0.2551 H         1 <0>         0.1376
     46 H15        -4.6700    1.6336    1.3745 H         1 <0>         0.0833
     47 H16        -3.7673    3.1139    0.9716 H         1 <0>         0.0900
     48 H17        -5.3115    2.7640    0.1584 H         1 <0>         0.1092
     49 H18        -4.1274   -0.8695    0.5355 H         1 <0>         0.1321
     50 H19        -5.5734   -2.6517   -0.3535 H         1 <0>         0.1458
     51 H20        -6.5528   -0.1761   -3.6990 H         1 <0>         0.1525
     52 H21        -5.1112    1.6035   -2.7977 H         1 <0>         0.1460
     53 H22        -6.7708   -4.1226   -1.1269 H         1 <0>         0.2263
     54 H23        -9.0031   -3.9424   -4.6817 H         1 <0>         0.2308
     55 H24         3.6296    3.9252   -0.3000 H         1 <0>         0.0761
     56 H25         4.2392    3.2299   -1.8209 H         1 <0>         0.0797
     57 H26         2.4872    3.3032   -1.5151 H         1 <0>         0.0585
     58 N5         -2.4323    0.9654    0.0391 N.4       1 <0>        -0.5066
     59 H27        -2.6158    0.6669    1.0042 H         1 <0>         0.4306
     60 H28        -2.1647    0.1510   -0.5260 H         1 <0>         0.4423
@<TRIPOS>BOND
     1    1    2 1
     2    1   34 1
     3    1   35 1
     4    1   36 1
     5    2    7 ar
     6    2    3 ar
     7    3    4 ar
     8    3   37 1
     9    4    5 ar
    10    4   38 1
    11    5    6 ar
    12    5   33 1
    13    6    7 ar
    14    6    8 1
    15    7   39 1
    16    8    9 am
    17    8   40 1
    18    9   10 2
    19    9   11 1
    20   11   12 1
    21   11   13 1
    22   11   58 1
    23   13   18 ar
    24   13   14 ar
    25   14   15 ar
    26   14   41 1
    27   15   16 ar
    28   15   42 1
    29   16   17 ar
    30   16   43 1
    31   17   18 ar
    32   17   44 1
    33   18   45 1
    34   19   20 1
    35   19   21 1
    36   19   22 1
    37   19   58 1
    38   21   46 1
    39   21   47 1
    40   21   48 1
    41   22   27 ar
    42   22   23 ar
    43   23   24 ar
    44   23   49 1
    45   24   25 ar
    46   24   50 1
    47   25   26 ar
    48   25   28 1
    49   26   27 ar
    50   26   51 1
    51   27   52 1
    52   28   32 1
    53   28   29 1
    54   29   30 2
    55   29   53 1
    56   30   31 1
    57   31   32 2
    58   31   54 1
    59   33   55 1
    60   33   56 1
    61   33   57 1
    62   58   59 1
    63   58   60 1
