@<TRIPOS>MOLECULE
ZINC21232784
   71    75     0     0     0
SMALL
USER_CHARGES
[4-[(6R,9S)-9-(4-dimethylaminophenyl)-7-oxo-5,6,8,9,10,11-hexahydrobenzo[c][1,5]benzodiazepin-6-yl]-2-ethoxy-phenyl] acetate
@<TRIPOS>ATOM
      1 C1          1.4715    5.0692    6.8955 C.3       1 <0>        -0.1530
      2 C2          0.5066    4.5556    5.8250 C.3       1 <0>         0.0516
      3 O1          0.1958    5.6141    4.9166 O.3       1 <0>        -0.3111
      4 C3         -0.6557    5.3227    3.8974 C.ar      1 <0>         0.1285
      5 C4         -1.1806    4.0459    3.7743 C.ar      1 <0>        -0.1667
      6 C5         -2.0464    3.7516    2.7379 C.ar      1 <0>        -0.0332
      7 C6         -2.3865    4.7270    1.8188 C.ar      1 <0>        -0.1270
      8 C7         -1.8712    6.0039    1.9388 C.ar      1 <0>        -0.0826
      9 C8         -1.0025    6.3060    2.9756 C.ar      1 <0>         0.0478
     10 O2         -0.4905    7.5604    3.0922 O.3       1 <0>        -0.2850
     11 C9          0.7371    7.7667    2.5900 C.2       1 <0>         0.4541
     12 O3          1.2968    6.8856    1.9815 O.2       1 <0>        -0.4954
     13 C10         1.4173    9.0973    2.7851 C.3       1 <0>        -0.1473
     14 C11        -2.6161    2.3627    2.6057 C.3       1 <0>         0.2851
     15 H1         -2.2943    1.6745    3.4012 H         1 <0>         0.0922
     16 C12        -2.1638    1.7838    1.2868 C.2       1 <0>        -0.3065
     17 C13        -2.9440    1.5568    0.2160 C.2       1 <0>         0.2735
     18 C14        -2.3566    0.9624   -1.0530 C.3       1 <0>        -0.1030
     19 C15        -0.9097    1.4222   -1.2223 C.3       1 <0>        -0.0268
     20 H2         -0.8578    2.5162   -1.3250 H         1 <0>         0.0843
     21 C16        -0.1219    0.9448    0.0035 C.3       1 <0>        -0.1594
     22 C17        -0.7772    1.4875    1.2380 C.2       1 <0>         0.4008
     23 O4         -0.0965    1.6798    2.2264 O.2       1 <0>        -0.4739
     24 C18        -0.3237    0.8188   -2.4728 C.ar      1 <0>        -0.1387
     25 C19        -0.2773   -0.5555   -2.6192 C.ar      1 <0>        -0.0652
     26 C20         0.2539   -1.1117   -3.7663 C.ar      1 <0>        -0.1919
     27 C21         0.7523   -0.2891   -4.7687 C.ar      1 <0>         0.2130
     28 C22         0.7093    1.0909   -4.6158 C.ar      1 <0>        -0.1915
     29 C23         0.1716    1.6406   -3.4686 C.ar      1 <0>        -0.0631
     30 N1          1.2950   -0.8484   -5.9278 N.pl3     1 <0>        -0.6386
     31 C24         1.7274    0.0189   -7.0265 C.3       1 <0>         0.0921
     32 C25         1.4318   -2.3022   -6.0449 C.3       1 <0>         0.0925
     33 N2         -4.2764    1.8096    0.1628 N.pl3     1 <0>        -0.6983
     34 C26        -4.8816    2.9849    0.5952 C.ar      1 <0>         0.1156
     35 C27        -5.5783    3.8170   -0.2634 C.ar      1 <0>        -0.1168
     36 C28        -6.2538    4.9106    0.2513 C.ar      1 <0>        -0.1235
     37 C29        -6.2310    5.1685    1.6099 C.ar      1 <0>        -0.1081
     38 C30        -5.5157    4.3499    2.4666 C.ar      1 <0>        -0.1263
     39 C31        -4.8242    3.2648    1.9523 C.ar      1 <0>         0.1717
     40 N3         -4.0525    2.4390    2.7679 N.pl3     1 <0>        -0.7804
     41 H3          1.7108    4.2545    7.5947 H         1 <0>         0.0808
     42 H4          1.0017    5.8981    7.4452 H         1 <0>         0.0668
     43 H5          2.3957    5.4243    6.4161 H         1 <0>         0.0663
     44 H6          0.9764    3.7267    5.2753 H         1 <0>         0.0669
     45 H7         -0.4176    4.2005    6.3043 H         1 <0>         0.0632
     46 H8         -0.9128    3.2809    4.4881 H         1 <0>         0.1342
     47 H9         -3.0599    4.4918    1.0079 H         1 <0>         0.1255
     48 H10        -2.1420    6.7651    1.2221 H         1 <0>         0.1319
     49 H11         2.4077    9.0764    2.3070 H         1 <0>         0.1040
     50 H12         1.5335    9.2954    3.8609 H         1 <0>         0.1034
     51 H13         0.8071    9.8913    2.3299 H         1 <0>         0.1022
     52 H14        -2.3830   -0.1355   -0.9900 H         1 <0>         0.0917
     53 H15        -2.9462    1.2942   -1.9204 H         1 <0>         0.0898
     54 H16        -0.1215   -0.1548    0.0336 H         1 <0>         0.1005
     55 H17         0.9136    1.3102   -0.0610 H         1 <0>         0.0961
     56 H18        -0.6606   -1.1945   -1.8375 H         1 <0>         0.1197
     57 H19         0.2858   -2.1850   -3.8820 H         1 <0>         0.1203
     58 H20         1.0962    1.7332   -5.3930 H         1 <0>         0.1205
     59 H21         0.1375    2.7134   -3.3493 H         1 <0>         0.1203
     60 H22         2.1242   -0.5980   -7.8462 H         1 <0>         0.0741
     61 H23         2.5123    0.7011   -6.6680 H         1 <0>         0.0547
     62 H24         0.8704    0.6048   -7.3902 H         1 <0>         0.0545
     63 H25         1.8754   -2.5513   -7.0202 H         1 <0>         0.0741
     64 H26         0.4404   -2.7716   -5.9624 H         1 <0>         0.0542
     65 H27         2.0823   -2.6753   -5.2401 H         1 <0>         0.0546
     66 H28        -4.9636    1.0542   -0.2460 H         1 <0>         0.4267
     67 H29        -5.5947    3.6156   -1.3243 H         1 <0>         0.1252
     68 H30        -6.8012    5.5649   -0.4110 H         1 <0>         0.1244
     69 H31        -6.7745    6.0141    2.0048 H         1 <0>         0.1228
     70 H32        -5.4972    4.5546    3.5269 H         1 <0>         0.1234
     71 H33        -4.5510    1.8397    3.5440 H         1 <0>         0.4176
@<TRIPOS>BOND
     1    1    2 1
     2    1   41 1
     3    1   42 1
     4    1   43 1
     5    2    3 1
     6    2   44 1
     7    2   45 1
     8    3    4 1
     9    4    9 ar
    10    4    5 ar
    11    5    6 ar
    12    5   46 1
    13    6    7 ar
    14    6   14 1
    15    7    8 ar
    16    7   47 1
    17    8    9 ar
    18    8   48 1
    19    9   10 1
    20   10   11 1
    21   11   12 2
    22   11   13 1
    23   13   49 1
    24   13   50 1
    25   13   51 1
    26   14   15 1
    27   14   40 1
    28   14   16 1
    29   16   22 1
    30   16   17 2
    31   17   18 1
    32   17   33 1
    33   18   19 1
    34   18   52 1
    35   18   53 1
    36   19   20 1
    37   19   21 1
    38   19   24 1
    39   21   22 1
    40   21   54 1
    41   21   55 1
    42   22   23 2
    43   24   29 ar
    44   24   25 ar
    45   25   26 ar
    46   25   56 1
    47   26   27 ar
    48   26   57 1
    49   27   28 ar
    50   27   30 1
    51   28   29 ar
    52   28   58 1
    53   29   59 1
    54   30   31 1
    55   30   32 1
    56   31   60 1
    57   31   61 1
    58   31   62 1
    59   32   63 1
    60   32   64 1
    61   32   65 1
    62   33   34 1
    63   33   66 1
    64   34   39 ar
    65   34   35 ar
    66   35   36 ar
    67   35   67 1
    68   36   37 ar
    69   36   68 1
    70   37   38 ar
    71   37   69 1
    72   38   39 ar
    73   38   70 1
    74   39   40 1
    75   40   71 1
