@<TRIPOS>MOLECULE
ZINC58071080
   52    55     0     0     0
SMALL
USER_CHARGES

@<TRIPOS>ATOM
      1 C1         -0.0184    1.5028    0.0103 C.3       1 <0>        -0.1241
      2 C2          0.0021   -0.0041    0.0020 C.ar      1 <0>        -0.0666
      3 C3          0.0057   -0.6887   -1.1989 C.ar      1 <0>        -0.1133
      4 C4          0.0245   -2.0709   -1.2065 C.ar      1 <0>        -0.0914
      5 C5          0.0400   -2.7685   -0.0132 C.ar      1 <0>        -0.1151
      6 C6          0.0373   -2.0839    1.1877 C.ar      1 <0>        -0.1047
      7 C7          0.0229   -0.7016    1.1953 C.ar      1 <0>        -0.1142
      8 C8          0.0595   -4.2753   -0.0215 C.3       1 <0>         0.2856
      9 H1          0.4102   -4.6288   -0.9911 H         1 <0>         0.1233
     10 C9         -1.3318   -4.7970    0.2301 C.2       1 <0>        -0.1736
     11 C10        -2.2413   -5.2660   -0.6588 C.2       1 <0>        -0.1255
     12 C11        -3.4699   -5.6983   -0.1958 C.2       1 <0>        -0.1589
     13 C12        -3.7289   -5.6405    1.1335 C.2       1 <0>        -0.1563
     14 S1         -2.2068   -4.9651    1.7772 S.3       1 <0>         0.0372
     15 N1          0.9594   -4.7579    1.0290 N.am      1 <0>        -0.6976
     16 C13         1.5341   -5.9719    0.9187 C.2       1 <0>         0.5076
     17 O1          1.3063   -6.6650   -0.0502 O.2       1 <0>        -0.5164
     18 C14         2.4598   -6.4683    1.9993 C.3       1 <0>        -0.0387
     19 N2          2.9514   -7.8068    1.6462 N.4       1 <0>        -0.3683
     20 C15         3.7511   -7.7193    0.4170 C.3       1 <0>        -0.0092
     21 C16         3.9817   -9.1392   -0.1286 C.3       1 <0>        -0.0565
     22 C17         4.4202   -9.9949    1.0148 C.2       1 <0>        -0.1868
     23 C18         4.3443   -9.6781    2.3382 C.2       1 <0>        -0.1530
     24 C19         4.8205  -10.6321    3.2340 C.2       1 <0>        -0.1504
     25 C20         5.3211  -11.8026    2.7736 C.2       1 <0>        -0.1529
     26 S2          5.1420  -11.6107    1.0057 S.3       1 <0>         0.1419
     27 C21         3.7554   -8.3341    2.7553 C.3       1 <0>         0.1000
     28 H2          4.5616   -7.6375    2.9857 H         1 <0>         0.1467
     29 C22         2.8685   -8.5228    3.9876 C.3       1 <0>        -0.1815
     30 H3          1.0042    1.8801    0.0026 H         1 <0>         0.0766
     31 H4         -0.5455    1.8639   -0.8728 H         1 <0>         0.0718
     32 H5         -0.5286    1.8543    0.9071 H         1 <0>         0.0712
     33 H6         -0.0064   -0.1436   -2.1312 H         1 <0>         0.1302
     34 H7          0.0266   -2.6057   -2.1448 H         1 <0>         0.1273
     35 H8          0.0491   -2.6289    2.1200 H         1 <0>         0.1173
     36 H9          0.0245   -0.1667    2.1335 H         1 <0>         0.1286
     37 H10        -2.0097   -5.3010   -1.7131 H         1 <0>         0.1352
     38 H11        -4.2125   -6.0761   -0.8829 H         1 <0>         0.1398
     39 H12        -4.6226   -5.9313    1.6655 H         1 <0>         0.1898
     40 H13         1.1416   -4.2036    1.8039 H         1 <0>         0.4121
     41 H14         3.3037   -5.7853    2.0968 H         1 <0>         0.1639
     42 H15         1.9207   -6.5171    2.9454 H         1 <0>         0.1646
     43 H16         3.2168   -7.1255   -0.3247 H         1 <0>         0.1560
     44 H17         4.7110   -7.2527    0.6383 H         1 <0>         0.1312
     45 H18         3.0547   -9.5294   -0.5486 H         1 <0>         0.1139
     46 H19         4.7567   -9.1199   -0.8948 H         1 <0>         0.1286
     47 H20         4.7901  -10.4383    4.2960 H         1 <0>         0.1435
     48 H21         5.7245  -12.6357    3.3301 H         1 <0>         0.1995
     49 H22         2.0678   -9.2248    3.7549 H         1 <0>         0.0856
     50 H23         3.4674   -8.9143    4.8098 H         1 <0>         0.1113
     51 H24         2.4383   -7.5636    4.2759 H         1 <0>         0.0847
     52 H25         2.1646   -8.4180    1.4868 H         1 <0>         0.4302
@<TRIPOS>BOND
     1    1    2 1
     2    1   30 1
     3    1   31 1
     4    1   32 1
     5    2    7 ar
     6    2    3 ar
     7    3    4 ar
     8    3   33 1
     9    4    5 ar
    10    4   34 1
    11    5    6 ar
    12    5    8 1
    13    6    7 ar
    14    6   35 1
    15    7   36 1
    16    8    9 1
    17    8   10 1
    18    8   15 1
    19   10   14 1
    20   10   11 2
    21   11   12 1
    22   11   37 1
    23   12   13 2
    24   12   38 1
    25   13   14 1
    26   13   39 1
    27   15   16 am
    28   15   40 1
    29   16   17 2
    30   16   18 1
    31   18   19 1
    32   18   41 1
    33   18   42 1
    34   19   27 1
    35   19   20 1
    36   19   52 1
    37   20   21 1
    38   20   43 1
    39   20   44 1
    40   21   22 1
    41   21   45 1
    42   21   46 1
    43   22   26 1
    44   22   23 2
    45   23   24 1
    46   23   27 1
    47   24   25 2
    48   24   47 1
    49   25   26 1
    50   25   48 1
    51   27   28 1
    52   27   29 1
    53   29   49 1
    54   29   50 1
    55   29   51 1
