@<TRIPOS>MOLECULE
ZINC38550125
   34    36     0     0     0
SMALL
USER_CHARGES

@<TRIPOS>ATOM
      1 C1         -0.0151    1.3807    0.0319 C.ar      1 <0>        -0.1304
      2 C2          0.1400    0.2186    0.7650 C.ar      1 <0>        -0.0987
      3 C3          1.3444   -0.4572    0.7442 C.ar      1 <0>        -0.1182
      4 C4          2.4000    0.0314   -0.0144 C.ar      1 <0>         0.1549
      5 C5          2.2408    1.1985   -0.7499 C.ar      1 <0>        -0.1412
      6 C6          1.0341    1.8699   -0.7245 C.ar      1 <0>        -0.0994
      7 N1          3.6216   -0.6507   -0.0373 N.am      1 <0>        -0.6699
      8 C7          3.6448   -1.9949    0.0571 C.2       1 <0>         0.7082
      9 O1          2.6030   -2.6218    0.0646 O.2       1 <0>        -0.5334
     10 N2          4.8227   -2.6443    0.1430 N.am      1 <0>        -0.6157
     11 C8          4.8465   -4.0300    0.2403 C.2       1 <0>         0.3325
     12 N3          5.8820   -4.8427    0.3381 N.2       1 <0>        -0.5117
     13 C9          5.7208   -6.1550    0.4236 C.2       1 <0>         0.1097
     14 C10         4.4579   -6.6777    0.4102 C.2       1 <0>        -0.2334
     15 S1          3.4829   -5.1851    0.2741 S.3       1 <0>         0.1356
     16 C11         6.8996   -7.0484    0.5323 C.ar      1 <0>        -0.0010
     17 C12         6.7257   -8.4287    0.6156 C.ar      1 <0>        -0.0866
     18 C13         7.8271   -9.2559    0.7162 C.ar      1 <0>        -0.0326
     19 C14         9.1022   -8.7163    0.7342 C.ar      1 <0>        -0.0937
     20 C15         9.2806   -7.3475    0.6518 C.ar      1 <0>        -0.1016
     21 C16         8.1865   -6.5109    0.5456 C.ar      1 <0>        -0.0083
     22 Cl1         8.4126   -4.7932    0.4349 Cl        1 <0>        -0.0276
     23 Cl2         7.6125  -10.9755    0.8207 Cl        1 <0>        -0.0564
     24 H1         -0.9592    1.9051    0.0465 H         1 <0>         0.1256
     25 H2         -0.6813   -0.1609    1.3548 H         1 <0>         0.1281
     26 H3          1.4652   -1.3644    1.3176 H         1 <0>         0.1361
     27 H4          3.0598    1.5810   -1.3409 H         1 <0>         0.1270
     28 H5          0.9098    2.7778   -1.2960 H         1 <0>         0.1288
     29 H6          4.4518   -0.1560   -0.1210 H         1 <0>         0.4134
     30 H7          5.6537   -2.1441    0.1370 H         1 <0>         0.4242
     31 H8          4.1375   -7.7074    0.4696 H         1 <0>         0.2001
     32 H9          5.7317   -8.8507    0.6020 H         1 <0>         0.1451
     33 H10         9.9606   -9.3669    0.8134 H         1 <0>         0.1448
     34 H11        10.2774   -6.9321    0.6664 H         1 <0>         0.1457
@<TRIPOS>BOND
     1    1    6 ar
     2    1    2 ar
     3    1   24 1
     4    2    3 ar
     5    2   25 1
     6    3    4 ar
     7    3   26 1
     8    4    5 ar
     9    4    7 1
    10    5    6 ar
    11    5   27 1
    12    6   28 1
    13    7    8 am
    14    7   29 1
    15    8    9 2
    16    8   10 am
    17   10   11 1
    18   10   30 1
    19   11   15 1
    20   11   12 2
    21   12   13 1
    22   13   14 2
    23   13   16 1
    24   14   15 1
    25   14   31 1
    26   16   21 ar
    27   16   17 ar
    28   17   18 ar
    29   17   32 1
    30   18   19 ar
    31   18   23 1
    32   19   20 ar
    33   19   33 1
    34   20   21 ar
    35   20   34 1
    36   21   22 1
