@<TRIPOS>MOLECULE
ZINC48312029
   37    38     0     0     0
SMALL
USER_CHARGES

@<TRIPOS>ATOM
      1 C1          0.0275    1.5364   -0.0079 C.3       1 <0>        -0.1481
      2 C2          0.0375    0.0065   -0.0126 C.3       1 <0>        -0.0878
      3 H1          0.5468   -0.3508   -0.9077 H         1 <0>         0.0737
      4 C3         -1.4016   -0.5130   -0.0029 C.3       1 <0>        -0.1175
      5 C4         -1.3916   -2.0429   -0.0077 C.3       1 <0>        -0.1173
      6 C5         -0.6573   -2.5520    1.2343 C.3       1 <0>        -0.1303
      7 C6          0.7818   -2.0325    1.2247 C.3       1 <0>         0.1634
      8 H2          1.2911   -2.3898    0.3296 H         1 <0>         0.0908
      9 C7          0.7718   -0.5026    1.2294 C.3       1 <0>        -0.1217
     10 N1          1.4849   -2.5200    2.4139 N.am      1 <0>        -0.7354
     11 C8          2.0614   -3.7382    2.4039 C.2       1 <0>         0.7072
     12 O1          1.9980   -4.4326    1.4079 O.2       1 <0>        -0.5682
     13 N2          2.7083   -4.1866    3.4980 N.am      1 <0>        -0.6859
     14 C9          3.2254   -5.4872    3.5214 C.ar      1 <0>         0.1944
     15 C10         3.7374   -6.0534    2.3615 C.ar      1 <0>        -0.1159
     16 C11         4.2474   -7.3366    2.3878 C.ar      1 <0>        -0.0842
     17 C12         4.2487   -8.0581    3.5677 C.ar      1 <0>        -0.1312
     18 C13         3.7399   -7.4978    4.7247 C.ar      1 <0>        -0.0722
     19 C14         3.2329   -6.2122    4.7064 C.ar      1 <0>        -0.1248
     20 Br1         2.5435   -5.4437    6.2908 Br        1 <0>        -0.0475
     21 H3          1.0528    1.9065   -0.0147 H         1 <0>         0.0553
     22 H4         -0.4956    1.8991   -0.8927 H         1 <0>         0.0575
     23 H5         -0.4817    1.8937    0.8872 H         1 <0>         0.0551
     24 H6         -1.9108   -0.1557    0.8921 H         1 <0>         0.0633
     25 H7         -1.9247   -0.1503   -0.8878 H         1 <0>         0.0652
     26 H8         -2.4168   -2.4130   -0.0008 H         1 <0>         0.0662
     27 H9         -0.8823   -2.4002   -0.9027 H         1 <0>         0.0652
     28 H10        -1.1665   -2.1947    2.1294 H         1 <0>         0.0632
     29 H11        -0.6501   -3.6420    1.2310 H         1 <0>         0.0682
     30 H12         1.7971   -0.1325    1.2225 H         1 <0>         0.0697
     31 H13         0.2626   -0.1453    2.1245 H         1 <0>         0.0690
     32 H14         1.5356   -1.9660    3.2085 H         1 <0>         0.3977
     33 H15         2.8154   -3.6081    4.2692 H         1 <0>         0.4089
     34 H16         3.7364   -5.4910    1.4395 H         1 <0>         0.1504
     35 H17         4.6453   -7.7774    1.4857 H         1 <0>         0.1335
     36 H18         4.6479   -9.0615    3.5852 H         1 <0>         0.1335
     37 H19         3.7421   -8.0639    5.6444 H         1 <0>         0.1364
@<TRIPOS>BOND
     1    1    2 1
     2    1   21 1
     3    1   22 1
     4    1   23 1
     5    2    3 1
     6    2    9 1
     7    2    4 1
     8    4    5 1
     9    4   24 1
    10    4   25 1
    11    5    6 1
    12    5   26 1
    13    5   27 1
    14    6    7 1
    15    6   28 1
    16    6   29 1
    17    7    8 1
    18    7    9 1
    19    7   10 1
    20    9   30 1
    21    9   31 1
    22   10   11 am
    23   10   32 1
    24   11   12 2
    25   11   13 am
    26   13   14 1
    27   13   33 1
    28   14   19 ar
    29   14   15 ar
    30   15   16 ar
    31   15   34 1
    32   16   17 ar
    33   16   35 1
    34   17   18 ar
    35   17   36 1
    36   18   19 ar
    37   18   37 1
    38   19   20 1
