@<TRIPOS>MOLECULE
ZINC45618311
   48    51     0     0     0
SMALL
USER_CHARGES

@<TRIPOS>ATOM
      1 C1         -1.5417   -0.2633    0.1464 C.3       1 <0>        -0.1546
      2 C2         -2.6900   -0.8636    0.9601 C.3       1 <0>        -0.0537
      3 H1         -3.4161   -0.0847    1.1931 H         1 <0>         0.1279
      4 C3         -3.3589   -1.9505    0.1588 C.2       1 <0>         0.4307
      5 N1         -3.8251   -1.6715   -1.0855 N.am      1 <0>        -0.6292
      6 H2         -3.7213   -0.7755   -1.4424 H         1 <0>         0.4212
      7 C4         -4.4281   -2.6138   -1.8338 C.2       1 <0>         0.5568
      8 O1         -4.8406   -2.3475   -2.9496 O.2       1 <0>        -0.5016
      9 C5         -4.5772   -3.9330   -1.3000 C.2       1 <0>        -0.2405
     10 C6         -5.1866   -5.1111   -1.9079 C.2       1 <0>         0.0099
     11 C7         -5.2122   -6.2692   -1.2005 C.2       1 <0>        -0.1669
     12 S1         -4.4124   -5.8343    0.3319 S.3       1 <0>         0.1889
     13 C8         -4.0655   -4.1277   -0.0069 C.2       1 <0>         0.1079
     14 N2         -3.4756   -3.1463    0.6709 N.2       1 <0>        -0.4651
     15 C9         -5.7644   -5.0447   -3.2655 C.2       1 <0>         0.0381
     16 C10        -5.5140   -5.9120   -4.2829 C.2       1 <0>        -0.1897
     17 C11        -6.2719   -5.4719   -5.3876 C.2       1 <0>        -0.2169
     18 C12        -6.9396   -4.3705   -4.9943 C.2       1 <0>        -0.0277
     19 O2         -6.6352   -4.1183   -3.7094 O.3       1 <0>        -0.1500
     20 S2         -2.0378   -1.5630    2.5015 S.3       1 <0>        -0.0657
     21 C13        -1.4105   -0.1215    3.4066 C.3       1 <0>        -0.1206
     22 H3         -0.6997    0.4189    2.7815 H         1 <0>         0.1124
     23 C14        -2.5765    0.8011    3.7676 C.3       1 <0>        -0.1444
     24 C15        -0.7236   -0.5798    4.6673 C.2       1 <0>         0.5479
     25 O3         -0.9614   -1.6787    5.1222 O.2       1 <0>        -0.4901
     26 N3          0.1548    0.2314    5.2892 N.am      1 <0>        -0.6806
     27 C16         0.7131   -0.1499    6.5154 C.ar      1 <0>         0.1505
     28 C17         1.9086   -0.8570    6.5463 C.ar      1 <0>        -0.0169
     29 C18         2.4568   -1.2319    7.7587 C.ar      1 <0>        -0.1015
     30 C19         1.8166   -0.9044    8.9397 C.ar      1 <0>        -0.0853
     31 C20         0.6266   -0.2007    8.9127 C.ar      1 <0>        -0.1016
     32 C21         0.0757    0.1828    7.7042 C.ar      1 <0>        -0.0187
     33 Cl1        -1.4144    1.0729    7.6719 Cl        1 <0>        -0.0451
     34 Cl2         2.7128   -1.2698    5.0642 Cl        1 <0>        -0.0427
     35 H4         -0.8156   -1.0421   -0.0866 H         1 <0>         0.0825
     36 H5         -1.9336    0.1570   -0.7798 H         1 <0>         0.0709
     37 H6         -1.0579    0.5229    0.7260 H         1 <0>         0.0812
     38 H7         -5.6197   -7.2250   -1.4953 H         1 <0>         0.2052
     39 H8         -4.8609   -6.7716   -4.2509 H         1 <0>         0.1491
     40 H9         -6.3097   -5.9312   -6.3643 H         1 <0>         0.1500
     41 H10        -7.6118   -3.7890   -5.6079 H         1 <0>         0.2020
     42 H11        -3.2873    0.2606    4.3928 H         1 <0>         0.0796
     43 H12        -2.1995    1.6672    4.3115 H         1 <0>         0.0720
     44 H13        -3.0733    1.1325    2.8558 H         1 <0>         0.0703
     45 H14         0.4003    1.0795    4.8873 H         1 <0>         0.4137
     46 H15         3.3862   -1.7816    7.7835 H         1 <0>         0.1464
     47 H16         2.2468   -1.1992    9.8854 H         1 <0>         0.1479
     48 H17         0.1290    0.0531    9.8370 H         1 <0>         0.1462
@<TRIPOS>BOND
     1    1    2 1
     2    1   35 1
     3    1   36 1
     4    1   37 1
     5    2    3 1
     6    2    4 1
     7    2   20 1
     8    4   14 2
     9    4    5 1
    10    5    6 1
    11    5    7 am
    12    7    8 2
    13    7    9 1
    14    9   13 2
    15    9   10 1
    16   10   11 2
    17   10   15 1
    18   11   12 1
    19   11   38 1
    20   12   13 1
    21   13   14 1
    22   15   19 1
    23   15   16 2
    24   16   17 1
    25   16   39 1
    26   17   18 2
    27   17   40 1
    28   18   19 1
    29   18   41 1
    30   20   21 1
    31   21   22 1
    32   21   23 1
    33   21   24 1
    34   23   42 1
    35   23   43 1
    36   23   44 1
    37   24   25 2
    38   24   26 am
    39   26   27 1
    40   26   45 1
    41   27   32 ar
    42   27   28 ar
    43   28   29 ar
    44   28   34 1
    45   29   30 ar
    46   29   46 1
    47   30   31 ar
    48   30   47 1
    49   31   32 ar
    50   31   48 1
    51   32   33 1
