@<TRIPOS>MOLECULE
ZINC46056015
   68    72     0     0     0
SMALL
USER_CHARGES

@<TRIPOS>ATOM
      1 C1         -1.9670    2.2792   -2.0689 C.3       1 <0>        -0.1192
      2 C2         -1.7285    0.8135   -1.8121 C.ar      1 <0>        -0.0856
      3 C3         -1.0607    0.0482   -2.7508 C.ar      1 <0>        -0.1076
      4 C4         -0.8406   -1.2951   -2.5186 C.ar      1 <0>        -0.1181
      5 C5         -1.2902   -1.8774   -1.3405 C.ar      1 <0>         0.1214
      6 C6         -1.9599   -1.1063   -0.3999 C.ar      1 <0>        -0.1058
      7 C7         -2.1727    0.2380   -0.6361 C.ar      1 <0>        -0.1031
      8 C8         -2.4494   -1.7341    0.8797 C.3       1 <0>        -0.1153
      9 N1         -1.0691   -3.2384   -1.1023 N.am      1 <0>        -0.6606
     10 C9         -0.9672   -4.0958   -2.1372 C.2       1 <0>         0.5141
     11 O1         -0.9888   -3.6777   -3.2755 O.2       1 <0>        -0.5051
     12 C10        -0.8263   -5.5740   -1.8799 C.3       1 <0>        -0.1204
     13 C11        -2.0508   -6.0791   -1.1115 C.3       1 <0>        -0.1405
     14 C12        -1.9392   -7.5935   -0.9233 C.3       1 <0>        -0.0056
     15 N2         -1.8776   -8.2500   -2.2347 N.4       1 <0>        -0.3878
     16 C13        -0.6675   -7.8247   -2.9483 C.3       1 <0>        -0.0107
     17 C14        -0.7302   -6.3191   -3.2144 C.3       1 <0>        -0.1254
     18 C15        -1.8490   -9.7071   -2.0504 C.3       1 <0>         0.0639
     19 C16        -1.9490  -10.3852   -3.3925 C.2       1 <0>        -0.0099
     20 C17        -0.9046  -10.8123   -4.1198 C.2       1 <0>        -0.1254
     21 C18        -1.4491  -11.4067   -5.3429 C.ar      1 <0>        -0.1216
     22 C19        -0.8790  -12.0100   -6.4657 C.ar      1 <0>        -0.0591
     23 C20        -1.6833  -12.4771   -7.4666 C.ar      1 <0>        -0.1374
     24 C21        -3.0634  -12.3567   -7.3763 C.ar      1 <0>        -0.0725
     25 C22        -3.6468  -11.7651   -6.2776 C.ar      1 <0>        -0.1359
     26 C23        -2.8470  -11.2824   -5.2466 C.ar      1 <0>         0.1256
     27 N3         -3.1179  -10.6621   -4.0476 N.pl3     1 <0>        -0.4728
     28 C24        -4.4581  -10.3435   -3.5488 C.3       1 <0>         0.1497
     29 C25        -5.0282  -11.5441   -2.8384 C.ar      1 <0>        -0.0983
     30 C26        -5.7033  -12.5150   -3.5549 C.ar      1 <0>        -0.1051
     31 C27        -6.2267  -13.6166   -2.9047 C.ar      1 <0>        -0.0796
     32 C28        -6.0762  -13.7487   -1.5370 C.ar      1 <0>        -0.1366
     33 C29        -5.4005  -12.7772   -0.8186 C.ar      1 <0>         0.1054
     34 C30        -4.8712  -11.6770   -1.4720 C.ar      1 <0>        -0.1448
     35 F1         -5.2532  -12.9050    0.5183 F         1 <0>        -0.1329
     36 H1         -1.1276    2.8571   -1.6821 H         1 <0>         0.0742
     37 H2         -2.0619    2.4494   -3.1413 H         1 <0>         0.0691
     38 H3         -2.8839    2.5911   -1.5689 H         1 <0>         0.0686
     39 H4         -0.7114    0.5016   -3.6667 H         1 <0>         0.1278
     40 H5         -0.3197   -1.8923   -3.2523 H         1 <0>         0.1469
     41 H6         -2.6899    0.8392    0.0970 H         1 <0>         0.1288
     42 H7         -1.6727   -1.6605    1.6409 H         1 <0>         0.0737
     43 H8         -3.3435   -1.2126    1.2214 H         1 <0>         0.0754
     44 H9         -2.6862   -2.7832    0.7024 H         1 <0>         0.0575
     45 H10        -0.9893   -3.5648   -0.1924 H         1 <0>         0.4100
     46 H11         0.0744   -5.7578   -1.2942 H         1 <0>         0.1205
     47 H12        -2.0946   -5.5934   -0.1367 H         1 <0>         0.1185
     48 H13        -2.9549   -5.8480   -1.6749 H         1 <0>         0.0964
     49 H14        -1.0350   -7.8235   -0.3596 H         1 <0>         0.1379
     50 H15        -2.8094   -7.9564   -0.3763 H         1 <0>         0.1358
     51 H16         0.2096   -8.0497   -2.3414 H         1 <0>         0.1345
     52 H17        -0.5988   -8.3582   -3.8963 H         1 <0>         0.1405
     53 H18        -1.6068   -6.0930   -3.8214 H         1 <0>         0.0971
     54 H19         0.1700   -6.0051   -3.7427 H         1 <0>         0.1225
     55 H20        -0.9151   -9.9939   -1.5671 H         1 <0>         0.1552
     56 H21        -2.6895  -10.0109   -1.4263 H         1 <0>         0.1339
     57 H22         0.1390  -10.7327   -3.8536 H         1 <0>         0.1577
     58 H23         0.1939  -12.1067   -6.5430 H         1 <0>         0.1295
     59 H24        -1.2419  -12.9433   -8.3350 H         1 <0>         0.1318
     60 H25        -3.6860  -12.7305   -8.1758 H         1 <0>         0.1342
     61 H26        -4.7214  -11.6759   -6.2169 H         1 <0>         0.1233
     62 H27        -4.3976   -9.5054   -2.8546 H         1 <0>         0.0857
     63 H28        -5.1032  -10.0763   -4.3857 H         1 <0>         0.1114
     64 H29        -5.8220  -12.4123   -4.6234 H         1 <0>         0.1323
     65 H30        -6.7539  -14.3744   -3.4654 H         1 <0>         0.1426
     66 H31        -6.4860  -14.6092   -1.0291 H         1 <0>         0.1442
     67 H32        -4.3400  -10.9207   -0.9132 H         1 <0>         0.1255
     68 H33        -2.6916   -7.9972   -2.7747 H         1 <0>         0.4197
@<TRIPOS>BOND
     1    1    2 1
     2    1   36 1
     3    1   37 1
     4    1   38 1
     5    2    7 ar
     6    2    3 ar
     7    3    4 ar
     8    3   39 1
     9    4    5 ar
    10    4   40 1
    11    5    6 ar
    12    5    9 1
    13    6    7 ar
    14    6    8 1
    15    7   41 1
    16    8   42 1
    17    8   43 1
    18    8   44 1
    19    9   10 am
    20    9   45 1
    21   10   11 2
    22   10   12 1
    23   12   17 1
    24   12   13 1
    25   12   46 1
    26   13   14 1
    27   13   47 1
    28   13   48 1
    29   14   15 1
    30   14   49 1
    31   14   50 1
    32   15   16 1
    33   15   18 1
    34   15   68 1
    35   16   17 1
    36   16   51 1
    37   16   52 1
    38   17   53 1
    39   17   54 1
    40   18   19 1
    41   18   55 1
    42   18   56 1
    43   19   27 1
    44   19   20 2
    45   20   21 1
    46   20   57 1
    47   21   26 ar
    48   21   22 ar
    49   22   23 ar
    50   22   58 1
    51   23   24 ar
    52   23   59 1
    53   24   25 ar
    54   24   60 1
    55   25   26 ar
    56   25   61 1
    57   26   27 1
    58   27   28 1
    59   28   29 1
    60   28   62 1
    61   28   63 1
    62   29   34 ar
    63   29   30 ar
    64   30   31 ar
    65   30   64 1
    66   31   32 ar
    67   31   65 1
    68   32   33 ar
    69   32   66 1
    70   33   34 ar
    71   33   35 1
    72   34   67 1
