@<TRIPOS>MOLECULE
ZINC35625460
   36    37     0     0     0
SMALL
USER_CHARGES

@<TRIPOS>ATOM
      1 C1         -0.0814    1.1645   -0.4190 C.3       1 <0>        -0.1501
      2 C2          0.0662   -0.3285   -0.1189 C.3       1 <0>        -0.1322
      3 C3          0.7421   -0.5109    1.2415 C.3       1 <0>         0.1857
      4 H1          0.1804    0.0318    2.0019 H         1 <0>         0.1073
      5 C4          0.7769   -1.9760    1.5928 C.ar      1 <0>        -0.0804
      6 C5          1.8884   -2.7357    1.2789 C.ar      1 <0>        -0.0868
      7 C6          1.9211   -4.0793    1.6007 C.ar      1 <0>        -0.0985
      8 C7          0.8412   -4.6649    2.2377 C.ar      1 <0>        -0.0245
      9 C8         -0.2710   -3.9053    2.5524 C.ar      1 <0>        -0.0971
     10 C9         -0.3011   -2.5591    2.2344 C.ar      1 <0>        -0.0184
     11 Cl1        -1.6941   -1.6035    2.6344 Cl        1 <0>        -0.0487
     12 Cl2         0.8822   -6.3528    2.6414 Cl        1 <0>        -0.0519
     13 N1          2.1102    0.0094    1.1808 N.pl3     1 <0>        -0.7353
     14 C10         2.4040    1.2668    1.7152 C.ar      1 <0>         0.2269
     15 C11         1.4014    2.0221    2.3094 C.ar      1 <0>        -0.1833
     16 C12         1.6950    3.2642    2.8371 C.ar      1 <0>        -0.0647
     17 C13         2.9857    3.7569    2.7742 C.ar      1 <0>        -0.1315
     18 C14         3.9869    3.0082    2.1835 C.ar      1 <0>        -0.0622
     19 C15         3.7015    1.7619    1.6585 C.ar      1 <0>        -0.1084
     20 Cl3         4.9602    0.8194    0.9229 Cl        1 <0>        -0.0748
     21 C16         3.3016    5.1131    3.3503 C.3       1 <0>        -0.1079
     22 H2          0.9038    1.6306   -0.4373 H         1 <0>         0.0597
     23 H3         -0.5629    1.2944   -1.3882 H         1 <0>         0.0578
     24 H4         -0.6903    1.6321    0.3548 H         1 <0>         0.0556
     25 H5         -0.9189   -0.7946   -0.1006 H         1 <0>         0.0760
     26 H6          0.6751   -0.7962   -0.8927 H         1 <0>         0.0691
     27 H7          2.7314   -2.2790    0.7817 H         1 <0>         0.1373
     28 H8          2.7894   -4.6724    1.3546 H         1 <0>         0.1433
     29 H9         -1.1140   -4.3619    3.0496 H         1 <0>         0.1478
     30 H10         2.8122   -0.5189    0.7697 H         1 <0>         0.4014
     31 H11         0.3929    1.6387    2.3585 H         1 <0>         0.1310
     32 H12         0.9155    3.8518    3.2992 H         1 <0>         0.1276
     33 H13         4.9938    3.3960    2.1357 H         1 <0>         0.1316
     34 H14         3.5878    5.0057    4.3965 H         1 <0>         0.0679
     35 H15         4.1237    5.5621    2.7930 H         1 <0>         0.0647
     36 H16         2.4217    5.7524    3.2780 H         1 <0>         0.0658
@<TRIPOS>BOND
     1    1    2 1
     2    1   22 1
     3    1   23 1
     4    1   24 1
     5    2    3 1
     6    2   25 1
     7    2   26 1
     8    3    4 1
     9    3    5 1
    10    3   13 1
    11    5   10 ar
    12    5    6 ar
    13    6    7 ar
    14    6   27 1
    15    7    8 ar
    16    7   28 1
    17    8    9 ar
    18    8   12 1
    19    9   10 ar
    20    9   29 1
    21   10   11 1
    22   13   14 1
    23   13   30 1
    24   14   19 ar
    25   14   15 ar
    26   15   16 ar
    27   15   31 1
    28   16   17 ar
    29   16   32 1
    30   17   18 ar
    31   17   21 1
    32   18   19 ar
    33   18   33 1
    34   19   20 1
    35   21   34 1
    36   21   35 1
    37   21   36 1
