@<TRIPOS>MOLECULE
ZINC09331819
   42    45     0     0     0
SMALL
USER_CHARGES
(6R,9R)-9-methyl-6-phenyl-8,9,10,11-tetrahydro-6H-benzo[c][1,5]benzothiazepin-7-one
@<TRIPOS>ATOM
      1 C1          3.7359   -0.7726    0.5062 C.3       1 <0>        -0.1502
      2 C2          2.4139   -0.0121    0.6275 C.3       1 <0>        -0.0817
      3 H1          2.1633    0.0766    1.6949 H         1 <0>         0.0788
      4 C3          1.3132   -0.7623   -0.1216 C.3       1 <0>        -0.1063
      5 C4          0.0021   -0.0041    0.0020 C.2       1 <0>         0.2740
      6 C5         -0.0161    1.3385    0.0094 C.2       1 <0>        -0.2860
      7 C6         -1.2112    2.2622   -0.0210 C.3       1 <0>         0.0318
      8 H2         -1.1353    2.7304    0.9715 H         1 <0>         0.0940
      9 S1         -2.7674    1.4508   -0.4225 S.3       1 <0>        -0.0857
     10 C7         -3.0287    0.3171    0.8996 C.ar      1 <0>        -0.1350
     11 C8         -4.1103    0.4438    1.7552 C.ar      1 <0>        -0.0645
     12 C9         -4.2149   -0.4173    2.8355 C.ar      1 <0>        -0.1218
     13 C10        -3.2530   -1.3873    3.0529 C.ar      1 <0>        -0.0917
     14 C11        -2.1850   -1.5263    2.1815 C.ar      1 <0>        -0.1199
     15 C12        -2.0925   -0.6784    1.0906 C.ar      1 <0>         0.1747
     16 N1         -1.0932   -0.7769    0.1394 N.pl3     1 <0>        -0.7124
     17 C13        -0.9567    3.3400   -1.0431 C.ar      1 <0>        -0.0362
     18 C14        -0.7388    3.0010   -2.3654 C.ar      1 <0>        -0.1091
     19 C15        -0.5102    3.9900   -3.3038 C.ar      1 <0>        -0.1223
     20 C16        -0.4890    5.3173   -2.9180 C.ar      1 <0>        -0.1191
     21 C17        -0.7017    5.6559   -1.5947 C.ar      1 <0>        -0.1196
     22 C18        -0.9355    4.6672   -0.6573 C.ar      1 <0>        -0.0759
     23 C19         1.2129    2.0487    0.0015 C.2       1 <0>         0.3913
     24 O1          1.1793    3.2636    0.0083 O.2       1 <0>        -0.4591
     25 C20         2.5477    1.3729   -0.0149 C.3       1 <0>        -0.1620
     26 H3          3.6318   -1.7649    0.9693 H         1 <0>         0.0605
     27 H4          4.5306   -0.2104    1.0184 H         1 <0>         0.0626
     28 H5          3.9957   -0.8892   -0.5563 H         1 <0>         0.0601
     29 H6          1.5859   -0.8488   -1.1837 H         1 <0>         0.0939
     30 H7          1.1955   -1.7673    0.3097 H         1 <0>         0.0887
     31 H8         -4.8601    1.2019    1.5832 H         1 <0>         0.1368
     32 H9         -5.0522   -0.3304    3.5121 H         1 <0>         0.1315
     33 H10        -3.3354   -2.0414    3.9083 H         1 <0>         0.1316
     34 H11        -1.4356   -2.2854    2.3503 H         1 <0>         0.1326
     35 H12        -1.2724   -1.6063   -0.5606 H         1 <0>         0.4270
     36 H13        -0.7510    1.9638   -2.6660 H         1 <0>         0.1174
     37 H14        -0.3437    3.7254   -4.3375 H         1 <0>         0.1192
     38 H15        -0.3060    6.0896   -3.6503 H         1 <0>         0.1191
     39 H16        -0.6848    6.6928   -1.2932 H         1 <0>         0.1203
     40 H17        -1.1014    4.9318    0.3766 H         1 <0>         0.1158
     41 H18         3.2738    1.9723    0.5538 H         1 <0>         0.0952
     42 H19         2.8954    1.2637   -1.0528 H         1 <0>         0.1016
@<TRIPOS>BOND
     1    1    2 1
     2    1   26 1
     3    1   27 1
     4    1   28 1
     5    2    3 1
     6    2   25 1
     7    2    4 1
     8    4    5 1
     9    4   29 1
    10    4   30 1
    11    5   16 1
    12    5    6 2
    13    6    7 1
    14    6   23 1
    15    7    8 1
    16    7    9 1
    17    7   17 1
    18    9   10 1
    19   10   15 ar
    20   10   11 ar
    21   11   12 ar
    22   11   31 1
    23   12   13 ar
    24   12   32 1
    25   13   14 ar
    26   13   33 1
    27   14   15 ar
    28   14   34 1
    29   15   16 1
    30   16   35 1
    31   17   22 ar
    32   17   18 ar
    33   18   19 ar
    34   18   36 1
    35   19   20 ar
    36   19   37 1
    37   20   21 ar
    38   20   38 1
    39   21   22 ar
    40   21   39 1
    41   22   40 1
    42   23   24 2
    43   23   25 1
    44   25   41 1
    45   25   42 1
