@<TRIPOS>MOLECULE
ZINC59169767
   62    64     0     0     0
SMALL
USER_CHARGES

@<TRIPOS>ATOM
      1 C1          0.7162   -1.8011    3.0859 C.3       1 <0>        -0.1775
      2 C2          0.0393   -0.4268    3.0530 C.3       1 <0>         0.0610
      3 C3         -1.4282   -0.5838    2.6685 C.3       1 <0>        -0.1414
      4 C4         -1.5579   -0.8875    1.1758 C.3       1 <0>         0.1085
      5 C5         -0.9409    0.2748    0.3976 C.3       1 <0>        -0.1599
      6 C6          0.5301    0.4390    0.7652 C.3       1 <0>         0.0607
      7 N1          0.7623    0.4975    2.1976 N.4       1 <0>        -0.4912
      8 C7          1.0118    1.7760    0.1556 C.3       1 <0>        -0.1792
      9 C8          1.3548   -0.6752    0.1123 C.3       1 <0>        -0.1757
     10 N2         -2.9794   -1.0032    0.8271 N.pl3     1 <0>        -0.5351
     11 C9         -3.8881    0.1188    1.0754 C.3       1 <0>         0.1448
     12 C10        -3.9728    0.9793   -0.1588 C.ar      1 <0>        -0.1796
     13 C11        -3.1936    2.1206   -0.2738 C.ar      1 <0>        -0.0712
     14 C12        -3.3045    2.8818   -1.4271 C.ar      1 <0>        -0.1797
     15 C13        -4.1819    2.4807   -2.4171 C.ar      1 <0>         0.1157
     16 N3         -4.9077    1.3894   -2.2733 N.ar      1 <0>        -0.4767
     17 C14        -4.8236    0.6379   -1.1927 C.ar      1 <0>         0.1264
     18 C15        -3.4483   -2.1415    0.2786 C.2       1 <0>         0.5478
     19 S1         -5.0842   -2.2429   -0.2159 S.2       1 <0>        -0.4907
     20 N4         -2.6293   -3.1999    0.1193 N.pl3     1 <0>        -0.6880
     21 C16        -1.6221   -3.1661   -0.8538 C.ar      1 <0>         0.1537
     22 C17        -1.4834   -2.0523   -1.6715 C.ar      1 <0>        -0.1352
     23 C18        -0.4908   -2.0193   -2.6311 C.ar      1 <0>        -0.1590
     24 C19         0.3680   -3.0984   -2.7787 C.ar      1 <0>         0.1154
     25 C20         0.2307   -4.2121   -1.9617 C.ar      1 <0>        -0.0291
     26 C21        -0.7587   -4.2437   -0.9973 C.ar      1 <0>        -0.1160
     27 Cl1         1.3055   -5.5626   -2.1474 Cl        1 <0>        -0.0324
     28 O1          1.3446   -3.0654   -3.7246 O.3       1 <0>        -0.2998
     29 C22         1.4279   -1.8881   -4.5303 C.3       1 <0>         0.0241
     30 C23         0.0818    0.1339    4.4935 C.3       1 <0>        -0.1793
     31 H1          1.7316   -1.6970    3.4682 H         1 <0>         0.0878
     32 H2          0.1503   -2.4694    3.7349 H         1 <0>         0.1063
     33 H3          0.7481   -2.2145    2.0778 H         1 <0>         0.0809
     34 H4         -1.8705   -1.4007    3.2437 H         1 <0>         0.1183
     35 H5         -1.9662    0.3390    2.8983 H         1 <0>         0.0988
     36 H6         -1.0561   -1.8193    0.9312 H         1 <0>         0.1221
     37 H7         -1.0294    0.0800   -0.6739 H         1 <0>         0.1189
     38 H8         -1.4807    1.1951    0.6329 H         1 <0>         0.1072
     39 H9          0.5621    1.4512    2.5155 H         1 <0>         0.4249
     40 H10         0.4219    2.5957    0.5656 H         1 <0>         0.0830
     41 H11         2.0634    1.9282    0.3985 H         1 <0>         0.0875
     42 H12         0.8896    1.7466   -0.9272 H         1 <0>         0.1070
     43 H13         1.2454   -0.6211   -0.9709 H         1 <0>         0.1040
     44 H14         2.4049   -0.5533    0.3780 H         1 <0>         0.0868
     45 H15         1.0008   -1.6438    0.4653 H         1 <0>         0.0812
     46 H16        -4.8790   -0.2636    1.3204 H         1 <0>         0.1292
     47 H17        -3.5121    0.7135    1.9079 H         1 <0>         0.0992
     48 H18        -2.5167    2.4098    0.5165 H         1 <0>         0.1276
     49 H19        -2.7132    3.7771   -1.5504 H         1 <0>         0.1378
     50 H20        -4.2742    3.0682   -3.3186 H         1 <0>         0.1598
     51 H21        -5.4303   -0.2521   -1.1130 H         1 <0>         0.1872
     52 H22        -2.7372   -3.9852    0.6785 H         1 <0>         0.4328
     53 H23        -2.1521   -1.2120   -1.5572 H         1 <0>         0.1273
     54 H24        -0.3835   -1.1531   -3.2670 H         1 <0>         0.1421
     55 H25        -0.8629   -5.1083   -0.3585 H         1 <0>         0.1486
     56 H26         0.4916   -1.7511   -5.0712 H         1 <0>         0.0608
     57 H27         1.6089   -1.0232   -3.8922 H         1 <0>         0.0538
     58 H28         2.2468   -1.9922   -5.2421 H         1 <0>         0.1095
     59 H29         1.1185    0.2232    4.8182 H         1 <0>         0.0870
     60 H30        -0.3916    1.1154    4.5155 H         1 <0>         0.0830
     61 H31        -0.4514   -0.5418    5.1623 H         1 <0>         0.1086
     62 H32         1.7654    0.3728    2.3656 H         1 <0>         0.4294
@<TRIPOS>BOND
     1    1    2 1
     2    1   31 1
     3    1   32 1
     4    1   33 1
     5    2    7 1
     6    2    3 1
     7    2   30 1
     8    3    4 1
     9    3   34 1
    10    3   35 1
    11    4    5 1
    12    4   10 1
    13    4   36 1
    14    5    6 1
    15    5   37 1
    16    5   38 1
    17    6    7 1
    18    6    8 1
    19    6    9 1
    20    7   39 1
    21    7   62 1
    22    8   40 1
    23    8   41 1
    24    8   42 1
    25    9   43 1
    26    9   44 1
    27    9   45 1
    28   10   11 1
    29   10   18 1
    30   11   12 1
    31   11   46 1
    32   11   47 1
    33   12   17 ar
    34   12   13 ar
    35   13   14 ar
    36   13   48 1
    37   14   15 ar
    38   14   49 1
    39   15   16 ar
    40   15   50 1
    41   16   17 ar
    42   17   51 1
    43   18   19 2
    44   18   20 1
    45   20   21 1
    46   20   52 1
    47   21   26 ar
    48   21   22 ar
    49   22   23 ar
    50   22   53 1
    51   23   24 ar
    52   23   54 1
    53   24   25 ar
    54   24   28 1
    55   25   26 ar
    56   25   27 1
    57   26   55 1
    58   28   29 1
    59   29   56 1
    60   29   57 1
    61   29   58 1
    62   30   59 1
    63   30   60 1
    64   30   61 1
