@<TRIPOS>MOLECULE
ZINC47155607
   43    45     0     0     0
SMALL
USER_CHARGES

@<TRIPOS>ATOM
      1 C1         -0.5961    1.6210    1.5178 C.3       1 <0>        -0.1271
      2 C2         -0.3714    0.2091    1.0411 C.2       1 <0>         0.2359
      3 C3         -1.4337   -0.5939    0.8199 C.2       1 <0>        -0.2879
      4 C4         -1.1631   -2.0057    0.3407 C.3       1 <0>         0.2159
      5 H1         -1.6768   -2.1417   -0.6110 H         1 <0>         0.0987
      6 N1          0.2467   -2.3883    0.1544 N.pl3     1 <0>        -0.6451
      7 C5          1.1999   -1.4725    0.4175 C.2       1 <0>         0.5496
      8 S1          2.8432   -1.9033    0.2054 S.2       1 <0>        -0.5868
      9 N2          0.9033   -0.2352    0.8345 N.pl3     1 <0>        -0.4945
     10 C6          2.0085    0.6922    1.0889 C.3       1 <0>         0.0454
     11 C7         -1.7749   -2.9589    1.3347 C.ar      1 <0>        -0.1671
     12 C8         -2.0257   -2.5420    2.6284 C.ar      1 <0>        -0.0615
     13 C9         -2.5869   -3.4161    3.5403 C.ar      1 <0>        -0.1244
     14 C10        -2.8981   -4.7084    3.1595 C.ar      1 <0>        -0.0735
     15 C11        -2.6487   -5.1273    1.8666 C.ar      1 <0>        -0.1502
     16 C12        -2.0913   -4.2508    0.9507 C.ar      1 <0>         0.1131
     17 F1         -1.8514   -4.6579   -0.3149 F         1 <0>        -0.1333
     18 C13        -2.7562   -0.1326    1.0291 C.2       1 <0>         0.5899
     19 O1         -2.9477    0.9684    1.5126 O.2       1 <0>        -0.5199
     20 N3         -3.8029   -0.9123    0.6931 N.am      1 <0>        -0.6711
     21 C14        -5.1071   -0.4224    0.8143 C.ar      1 <0>         0.1461
     22 C15        -5.3917    0.8922    0.4680 C.ar      1 <0>        -0.1141
     23 C16        -6.6809    1.3728    0.5885 C.ar      1 <0>        -0.1016
     24 C17        -7.6877    0.5468    1.0536 C.ar      1 <0>        -0.1311
     25 C18        -7.4076   -0.7624    1.3996 C.ar      1 <0>        -0.1013
     26 C19        -6.1218   -1.2510    1.2757 C.ar      1 <0>        -0.1407
     27 H2          0.3652    2.0939    1.7186 H         1 <0>         0.0786
     28 H3         -1.1246    2.1843    0.7488 H         1 <0>         0.1046
     29 H4         -1.1913    1.6058    2.4308 H         1 <0>         0.1148
     30 H5          0.4837   -3.2782   -0.1502 H         1 <0>         0.4459
     31 H6          2.2621    0.6733    2.1488 H         1 <0>         0.0864
     32 H7          2.8768    0.3924    0.5021 H         1 <0>         0.1284
     33 H8          1.7089    1.7011    0.8049 H         1 <0>         0.0948
     34 H9         -1.7827   -1.5329    2.9270 H         1 <0>         0.1314
     35 H10        -2.7821   -3.0896    4.5510 H         1 <0>         0.1349
     36 H11        -3.3359   -5.3907    3.8731 H         1 <0>         0.1390
     37 H12        -2.8916   -6.1368    1.5696 H         1 <0>         0.1426
     38 H13        -3.6516   -1.8133    0.3671 H         1 <0>         0.4068
     39 H14        -4.6057    1.5380    0.1054 H         1 <0>         0.1293
     40 H15        -6.9029    2.3949    0.3194 H         1 <0>         0.1262
     41 H16        -8.6949    0.9252    1.1472 H         1 <0>         0.1241
     42 H17        -8.1961   -1.4048    1.7629 H         1 <0>         0.1263
     43 H18        -5.9046   -2.2749    1.5418 H         1 <0>         0.1227
@<TRIPOS>BOND
     1    1    2 1
     2    1   27 1
     3    1   28 1
     4    1   29 1
     5    2    9 1
     6    2    3 2
     7    3    4 1
     8    3   18 1
     9    4    5 1
    10    4    6 1
    11    4   11 1
    12    6    7 1
    13    6   30 1
    14    7    8 2
    15    7    9 1
    16    9   10 1
    17   10   31 1
    18   10   32 1
    19   10   33 1
    20   11   16 ar
    21   11   12 ar
    22   12   13 ar
    23   12   34 1
    24   13   14 ar
    25   13   35 1
    26   14   15 ar
    27   14   36 1
    28   15   16 ar
    29   15   37 1
    30   16   17 1
    31   18   19 2
    32   18   20 am
    33   20   21 1
    34   20   38 1
    35   21   26 ar
    36   21   22 ar
    37   22   23 ar
    38   22   39 1
    39   23   24 ar
    40   23   40 1
    41   24   25 ar
    42   24   41 1
    43   25   26 ar
    44   25   42 1
    45   26   43 1
