@<TRIPOS>MOLECULE
ZINC13774838
   52    53     0     0     0
SMALL
USER_CHARGES

@<TRIPOS>ATOM
      1 C1         -0.0187    1.5258    0.0104 C.3       1 <0>        -0.1576
      2 C2          0.0021   -0.0041    0.0020 C.3       1 <0>         0.1868
      3 H1          0.5293   -0.3651    0.8851 H         1 <0>         0.1238
      4 C3          0.7074   -0.4901   -1.2379 C.ar      1 <0>        -0.1015
      5 C4          0.0376   -0.5216   -2.4467 C.ar      1 <0>        -0.1153
      6 C5          0.6846   -0.9674   -3.5840 C.ar      1 <0>        -0.1110
      7 C6          2.0016   -1.3812   -3.5126 C.ar      1 <0>        -0.0639
      8 C7          2.6718   -1.3488   -2.3040 C.ar      1 <0>        -0.1149
      9 C8          2.0261   -0.8990   -1.1675 C.ar      1 <0>        -0.0985
     10 C9          2.7067   -1.8682   -4.7523 C.3       1 <0>        -0.0319
     11 C10         2.7260   -0.7528   -5.7994 C.3       1 <0>        -0.1394
     12 C11         4.1426   -2.2625   -4.4007 C.3       1 <0>        -0.1464
     13 C12         1.9674   -3.0836   -5.3154 C.3       1 <0>        -0.1393
     14 N1         -1.3723   -0.5112    0.0124 N.pl3     1 <0>        -0.6812
     15 C13        -2.0286   -0.6552    1.1807 C.2       1 <0>         0.5651
     16 S1         -1.2562   -0.2456    2.6526 S.2       1 <0>        -0.6374
     17 N2         -3.2931   -1.1217    1.1903 N.pl3     1 <0>        -0.6830
     18 C14        -4.0065   -1.2783    2.4602 C.3       1 <0>         0.1451
     19 C15        -3.6573   -2.6340    3.0775 C.3       1 <0>        -0.1274
     20 C16        -4.4024   -2.7976    4.4038 C.3       1 <0>        -0.1149
     21 C17        -5.9101   -2.7239    4.1543 C.3       1 <0>        -0.1237
     22 C18        -6.2592   -1.3681    3.5370 C.3       1 <0>        -0.1143
     23 C19        -5.5142   -1.2046    2.2107 C.3       1 <0>        -0.1274
     24 H2          1.0039    1.9031    0.0027 H         1 <0>         0.0739
     25 H3         -0.5459    1.8868   -0.8726 H         1 <0>         0.0536
     26 H4         -0.5289    1.8773    0.9072 H         1 <0>         0.0785
     27 H5         -0.9914   -0.1983   -2.5024 H         1 <0>         0.1150
     28 H6          0.1611   -0.9927   -4.5283 H         1 <0>         0.1222
     29 H7          3.7006   -1.6725   -2.2481 H         1 <0>         0.1307
     30 H8          2.5507   -0.8702   -0.2240 H         1 <0>         0.1280
     31 H9          3.2527    0.1131   -5.3983 H         1 <0>         0.0573
     32 H10         3.2359   -1.1050   -6.6961 H         1 <0>         0.0602
     33 H11         1.7030   -0.4719   -6.0499 H         1 <0>         0.0564
     34 H12         4.1289   -3.0571   -3.6547 H         1 <0>         0.0594
     35 H13         4.6526   -2.6147   -5.2974 H         1 <0>         0.0600
     36 H14         4.6693   -1.3966   -3.9996 H         1 <0>         0.0599
     37 H15         0.9444   -2.8027   -5.5658 H         1 <0>         0.0562
     38 H16         2.4773   -3.4358   -6.2120 H         1 <0>         0.0604
     39 H17         1.9536   -3.8782   -4.5694 H         1 <0>         0.0565
     40 H18        -1.8100   -0.7432   -0.8215 H         1 <0>         0.3950
     41 H19        -3.7307   -1.3538    0.3563 H         1 <0>         0.3949
     42 H20        -3.7118   -0.4815    3.1431 H         1 <0>         0.1172
     43 H21        -3.9520   -3.4309    2.3946 H         1 <0>         0.0574
     44 H22        -2.5832   -2.6865    3.2553 H         1 <0>         0.0808
     45 H23        -4.1537   -3.7634    4.8436 H         1 <0>         0.0663
     46 H24        -4.1078   -2.0007    5.0867 H         1 <0>         0.0696
     47 H25        -6.2047   -3.5207    3.4714 H         1 <0>         0.0611
     48 H26        -6.4409   -2.8404    5.0991 H         1 <0>         0.0658
     49 H27        -7.3333   -1.3156    3.3592 H         1 <0>         0.0685
     50 H28        -5.9646   -0.5713    4.2199 H         1 <0>         0.0690
     51 H29        -5.7629   -0.2388    1.7709 H         1 <0>         0.0685
     52 H30        -5.8088   -2.0014    1.5278 H         1 <0>         0.0659
@<TRIPOS>BOND
     1    1    2 1
     2    1   24 1
     3    1   25 1
     4    1   26 1
     5    2    3 1
     6    2    4 1
     7    2   14 1
     8    4    9 ar
     9    4    5 ar
    10    5    6 ar
    11    5   27 1
    12    6    7 ar
    13    6   28 1
    14    7    8 ar
    15    7   10 1
    16    8    9 ar
    17    8   29 1
    18    9   30 1
    19   10   11 1
    20   10   12 1
    21   10   13 1
    22   11   31 1
    23   11   32 1
    24   11   33 1
    25   12   34 1
    26   12   35 1
    27   12   36 1
    28   13   37 1
    29   13   38 1
    30   13   39 1
    31   14   15 1
    32   14   40 1
    33   15   16 2
    34   15   17 1
    35   17   18 1
    36   17   41 1
    37   18   23 1
    38   18   19 1
    39   18   42 1
    40   19   20 1
    41   19   43 1
    42   19   44 1
    43   20   21 1
    44   20   45 1
    45   20   46 1
    46   21   22 1
    47   21   47 1
    48   21   48 1
    49   22   23 1
    50   22   49 1
    51   22   50 1
    52   23   51 1
    53   23   52 1
