@<TRIPOS>MOLECULE
ZINC35372831
   56    59     0     0     0
SMALL
USER_CHARGES

@<TRIPOS>ATOM
      1 C1         -1.2692    1.1896   -0.1475 C.3       1 <0>        -0.1219
      2 C2         -0.5892   -0.1532   -0.0734 C.ar      1 <0>        -0.1042
      3 C3          0.0112   -0.6918   -1.2039 C.ar      1 <0>         0.1508
      4 C4          0.6368   -1.9294   -1.1317 C.ar      1 <0>        -0.1210
      5 C5          0.6604   -2.6216    0.0635 C.ar      1 <0>        -0.0895
      6 C6          0.0617   -2.0840    1.1876 C.ar      1 <0>        -0.1170
      7 C7         -0.5575   -0.8478    1.1210 C.ar      1 <0>        -0.0180
      8 Cl1        -1.3009   -0.1725    2.5371 Cl        1 <0>        -0.0559
      9 N1         -0.0144    0.0112   -2.4135 N.am      1 <0>        -0.6573
     10 C8          0.0915   -0.6532   -3.5813 C.2       1 <0>         0.5330
     11 O1          0.1082   -1.8659   -3.5898 O.2       1 <0>        -0.4948
     12 C9          0.1892    0.1108   -4.8767 C.3       1 <0>        -0.1681
     13 S1          0.3196   -1.0567   -6.2589 S.3       1 <0>         0.1088
     14 C10         0.4243   -0.0227   -7.6818 C.2       1 <0>         0.1053
     15 N2          0.4116    1.2781   -7.6675 N.2       1 <0>        -0.4743
     16 C11         0.5189    1.7284   -9.0579 C.3       1 <0>         0.1646
     17 C12        -0.7126    2.5492   -9.4419 C.3       1 <0>        -0.1084
     18 C13        -0.5529    3.0567  -10.8773 C.3       1 <0>        -0.0007
     19 N3          0.6530    3.8880  -10.9739 N.4       1 <0>        -0.3845
     20 C14         1.8428    3.0783  -10.6854 C.3       1 <0>        -0.0009
     21 C15         1.7810    2.5715   -9.2423 C.3       1 <0>        -0.1080
     22 C16         0.7567    4.4412  -12.3308 C.3       1 <0>        -0.0462
     23 N4          0.5958    0.5199   -9.8837 N.2       1 <0>        -0.4727
     24 C17         0.5469   -0.5004   -9.0793 C.2       1 <0>         0.2425
     25 C18         0.6010   -1.9196   -9.4953 C.ar      1 <0>        -0.0887
     26 C19         0.2012   -2.2882  -10.7808 C.ar      1 <0>        -0.0365
     27 C20         0.2535   -3.6117  -11.1635 C.ar      1 <0>        -0.1586
     28 C21         0.7018   -4.5758  -10.2738 C.ar      1 <0>         0.1388
     29 C22         1.0996   -4.2149   -8.9957 C.ar      1 <0>        -0.1493
     30 C23         1.0574   -2.8932   -8.6054 C.ar      1 <0>        -0.0487
     31 F1          0.7507   -5.8714  -10.6534 F         1 <0>        -0.1251
     32 H1         -0.5482    1.9750    0.0795 H         1 <0>         0.0785
     33 H2         -1.6669    1.3406   -1.1511 H         1 <0>         0.0651
     34 H3         -2.0842    1.2245    0.5754 H         1 <0>         0.0827
     35 H4          1.1042   -2.3506   -2.0094 H         1 <0>         0.1514
     36 H5          1.1469   -3.5842    0.1198 H         1 <0>         0.1395
     37 H6          0.0813   -2.6274    2.1208 H         1 <0>         0.1383
     38 H7         -0.1085    0.9766   -2.4115 H         1 <0>         0.4154
     39 H8         -0.7015    0.7261   -5.0036 H         1 <0>         0.1294
     40 H9          1.0722    0.7496   -4.8560 H         1 <0>         0.1308
     41 H10        -1.6026    1.9238   -9.3739 H         1 <0>         0.1136
     42 H11        -0.8103    3.3976   -8.7646 H         1 <0>         0.1068
     43 H12        -0.4637    2.2075  -11.5547 H         1 <0>         0.1383
     44 H13        -1.4254    3.6496  -11.1518 H         1 <0>         0.1379
     45 H14         1.8777    2.2287  -11.3673 H         1 <0>         0.1386
     46 H15         2.7371    3.6871  -10.8183 H         1 <0>         0.1379
     47 H16         1.7547    3.4204   -8.5591 H         1 <0>         0.1069
     48 H17         2.6599    1.9618   -9.0327 H         1 <0>         0.1137
     49 H18        -0.1225    5.0493  -12.5434 H         1 <0>         0.1255
     50 H19         1.6519    5.0588  -12.4040 H         1 <0>         0.1256
     51 H20         0.8177    3.6261  -13.0519 H         1 <0>         0.1234
     52 H21        -0.1488   -1.5380  -11.4744 H         1 <0>         0.1402
     53 H22        -0.0556   -3.8979  -12.1579 H         1 <0>         0.1476
     54 H23         1.4474   -4.9698   -8.3061 H         1 <0>         0.1518
     55 H24         1.3725   -2.6124   -7.6113 H         1 <0>         0.1440
     56 H25         0.5929    4.6443  -10.3087 H         1 <0>         0.4238
@<TRIPOS>BOND
     1    1    2 1
     2    1   32 1
     3    1   33 1
     4    1   34 1
     5    2    7 ar
     6    2    3 ar
     7    3    4 ar
     8    3    9 1
     9    4    5 ar
    10    4   35 1
    11    5    6 ar
    12    5   36 1
    13    6    7 ar
    14    6   37 1
    15    7    8 1
    16    9   10 am
    17    9   38 1
    18   10   11 2
    19   10   12 1
    20   12   13 1
    21   12   39 1
    22   12   40 1
    23   13   14 1
    24   14   24 1
    25   14   15 2
    26   15   16 1
    27   16   21 1
    28   16   17 1
    29   16   23 1
    30   17   18 1
    31   17   41 1
    32   17   42 1
    33   18   19 1
    34   18   43 1
    35   18   44 1
    36   19   20 1
    37   19   22 1
    38   19   56 1
    39   20   21 1
    40   20   45 1
    41   20   46 1
    42   21   47 1
    43   21   48 1
    44   22   49 1
    45   22   50 1
    46   22   51 1
    47   23   24 2
    48   24   25 1
    49   25   30 ar
    50   25   26 ar
    51   26   27 ar
    52   26   52 1
    53   27   28 ar
    54   27   53 1
    55   28   29 ar
    56   28   31 1
    57   29   30 ar
    58   29   54 1
    59   30   55 1
