@<TRIPOS>MOLECULE
ZINC33413488
   66    68     0     0     0
SMALL
USER_CHARGES

@<TRIPOS>ATOM
      1 C1         -0.2906   -1.1714    2.4416 C.3       1 <0>        -0.1839
      2 C2          1.2152   -1.1098    2.1779 C.3       1 <0>         0.0329
      3 H1          1.7204   -1.8666    2.7781 H         1 <0>         0.1353
      4 C3          1.7428    0.2759    2.5551 C.3       1 <0>        -0.1363
      5 C4          1.5703    0.4952    4.0595 C.3       1 <0>        -0.1459
      6 C5          3.2260    0.3732    2.1923 C.3       1 <0>        -0.1660
      7 N1          1.4737   -1.3613    0.7539 N.4       1 <0>        -0.3815
      8 C6          1.2463   -2.7821    0.4584 C.3       1 <0>         0.0279
      9 C7          1.6557   -3.0714   -0.9628 C.ar      1 <0>        -0.0947
     10 C8          0.6946   -3.2634   -1.9338 C.ar      1 <0>        -0.1043
     11 C9          1.0687   -3.5286   -3.2390 C.ar      1 <0>        -0.0706
     12 C10         2.4079   -3.6037   -3.5800 C.ar      1 <0>        -0.1001
     13 C11         3.3791   -3.4139   -2.6193 C.ar      1 <0>        -0.0460
     14 C12         3.0085   -3.1401   -1.3010 C.ar      1 <0>        -0.1269
     15 C13         4.0432   -2.9300   -0.2678 C.2       1 <0>         0.5054
     16 O1          3.7208   -2.7899    0.8950 O.2       1 <0>        -0.5245
     17 O2          5.3442   -2.8938   -0.6150 O.3       1 <0>        -0.3313
     18 C14         6.2966   -2.7998    0.4462 C.3       1 <0>         0.0272
     19 C15         0.5676   -0.5406   -0.0606 C.3       1 <0>         0.0533
     20 C16         1.0041    0.9006   -0.0001 C.2       1 <0>        -0.0567
     21 C17         0.2863    1.9234    0.5071 C.2       1 <0>        -0.1336
     22 C18         1.0602    3.0922    0.3665 C.2       1 <0>        -0.1879
     23 C19         2.2215    2.7392   -0.2212 C.2       1 <0>         0.0342
     24 N2          2.1952    1.3942   -0.4433 N.pl3     1 <0>        -0.4395
     25 C20         3.2680    0.6098   -1.0598 C.3       1 <0>         0.1451
     26 C21         3.2211    0.7835   -2.5560 C.ar      1 <0>        -0.1264
     27 C22         2.4263   -0.0473   -3.3238 C.ar      1 <0>        -0.0708
     28 C23         2.3833    0.1120   -4.6960 C.ar      1 <0>        -0.1117
     29 C24         3.1348    1.1024   -5.3009 C.ar      1 <0>        -0.0512
     30 C25         3.9286    1.9336   -4.5332 C.ar      1 <0>        -0.1714
     31 C26         3.9683    1.7770   -3.1601 C.ar      1 <0>        -0.0431
     32 C27         4.7481    3.0128   -5.1926 C.3       1 <0>         0.5068
     33 F1          4.5409    2.9763   -6.5757 F         1 <0>        -0.1714
     34 F2          4.3604    4.2619   -4.6958 F         1 <0>        -0.1722
     35 F3          6.1037    2.8022   -4.9183 F         1 <0>        -0.1725
     36 H2         -0.7779   -0.3206    1.9654 H         1 <0>         0.0857
     37 H3         -0.6937   -2.0973    2.0314 H         1 <0>         0.0786
     38 H4         -0.4730   -1.1401    3.5158 H         1 <0>         0.1084
     39 H5          1.1848    1.0377    2.0106 H         1 <0>         0.1280
     40 H6          2.0486   -0.3198    4.6026 H         1 <0>         0.0611
     41 H7          2.0312    1.4411    4.3439 H         1 <0>         0.0736
     42 H8          0.5083    0.5206    4.3035 H         1 <0>         0.0678
     43 H9          3.7766   -0.4196    2.6987 H         1 <0>         0.0681
     44 H10         3.3440    0.2659    1.1140 H         1 <0>         0.0369
     45 H11         3.6139    1.3424    2.5056 H         1 <0>         0.0823
     46 H12         1.8384   -3.3941    1.1388 H         1 <0>         0.1587
     47 H13         0.1892   -3.0152    0.5866 H         1 <0>         0.1402
     48 H14        -0.3523   -3.2069   -1.6743 H         1 <0>         0.1487
     49 H15         0.3123   -3.6781   -3.9952 H         1 <0>         0.1493
     50 H16         2.6931   -3.8118   -4.6007 H         1 <0>         0.1497
     51 H17         4.4238   -3.4727   -2.8868 H         1 <0>         0.1528
     52 H18         6.2518   -3.7025    1.0556 H         1 <0>         0.0726
     53 H19         7.2974   -2.6931    0.0278 H         1 <0>         0.1167
     54 H20         6.0669   -1.9322    1.0647 H         1 <0>         0.0677
     55 H21         0.5953   -0.8855   -1.0942 H         1 <0>         0.1264
     56 H22        -0.4481   -0.6290    0.3249 H         1 <0>         0.1582
     57 H23        -0.7006    1.8585    0.9409 H         1 <0>         0.1502
     58 H24         0.7756    4.0880    0.6727 H         1 <0>         0.1519
     59 H25         3.0339    3.4062   -0.4693 H         1 <0>         0.1735
     60 H26         4.2316    0.9538   -0.6841 H         1 <0>         0.1143
     61 H27         3.1364   -0.4435   -0.8120 H         1 <0>         0.0695
     62 H28         1.8393   -0.8210   -2.8513 H         1 <0>         0.1197
     63 H29         1.7630   -0.5375   -5.2959 H         1 <0>         0.1429
     64 H30         3.1017    1.2265   -6.3732 H         1 <0>         0.1485
     65 H31         4.5857    2.4289   -2.5599 H         1 <0>         0.1382
     66 H32         2.4298   -1.1217    0.5382 H         1 <0>         0.4120
@<TRIPOS>BOND
     1    1    2 1
     2    1   36 1
     3    1   37 1
     4    1   38 1
     5    2    3 1
     6    2    4 1
     7    2    7 1
     8    4    5 1
     9    4    6 1
    10    4   39 1
    11    5   40 1
    12    5   41 1
    13    5   42 1
    14    6   43 1
    15    6   44 1
    16    6   45 1
    17    7    8 1
    18    7   19 1
    19    7   66 1
    20    8    9 1
    21    8   46 1
    22    8   47 1
    23    9   14 ar
    24    9   10 ar
    25   10   11 ar
    26   10   48 1
    27   11   12 ar
    28   11   49 1
    29   12   13 ar
    30   12   50 1
    31   13   14 ar
    32   13   51 1
    33   14   15 1
    34   15   16 2
    35   15   17 1
    36   17   18 1
    37   18   52 1
    38   18   53 1
    39   18   54 1
    40   19   20 1
    41   19   55 1
    42   19   56 1
    43   20   24 1
    44   20   21 2
    45   21   22 1
    46   21   57 1
    47   22   23 2
    48   22   58 1
    49   23   24 1
    50   23   59 1
    51   24   25 1
    52   25   26 1
    53   25   60 1
    54   25   61 1
    55   26   31 ar
    56   26   27 ar
    57   27   28 ar
    58   27   62 1
    59   28   29 ar
    60   28   63 1
    61   29   30 ar
    62   29   64 1
    63   30   31 ar
    64   30   32 1
    65   31   65 1
    66   32   33 1
    67   32   34 1
    68   32   35 1
