@<TRIPOS>MOLECULE
ZINC00618676
   28    29     0     0     0
SMALL
USER_CHARGES
1-(3-chlorophenyl)-3-(2,5-dichlorophenyl)-thiourea
@<TRIPOS>ATOM
      1 C1         -3.5592    0.1350   -2.0832 C.ar      1 <0>        -0.0994
      2 C2         -2.4354    0.9035   -1.8488 C.ar      1 <0>        -0.0620
      3 C3         -2.2784    1.5482   -0.6289 C.ar      1 <0>         0.1260
      4 C4         -3.2574    1.4269    0.3486 C.ar      1 <0>        -0.1101
      5 C5         -4.3820    0.6610    0.1065 C.ar      1 <0>        -0.0332
      6 C6         -4.5325    0.0156   -1.1088 C.ar      1 <0>        -0.0969
      7 Cl1        -5.6070    0.5087    1.3271 Cl        1 <0>        -0.0624
      8 N1         -1.1391    2.3230   -0.3874 N.pl3     1 <0>        -0.6210
      9 C7          0.0799    1.8485   -0.7122 C.2       1 <0>         0.5484
     10 S1          0.2263    0.3460   -1.5196 S.2       1 <0>        -0.5707
     11 N2          1.1832    2.5595   -0.4063 N.pl3     1 <0>        -0.6226
     12 C8          2.4504    2.0510   -0.7125 C.ar      1 <0>         0.1440
     13 C9          2.7310    0.7079   -0.4999 C.ar      1 <0>        -0.0536
     14 C10         3.9823    0.2077   -0.8078 C.ar      1 <0>        -0.0244
     15 C11         4.9582    1.0464   -1.3177 C.ar      1 <0>        -0.0890
     16 C12         4.6834    2.3852   -1.5255 C.ar      1 <0>        -0.0927
     17 C13         3.4325    2.8904   -1.2246 C.ar      1 <0>        -0.0388
     18 Cl2         3.0884    4.5717   -1.4865 Cl        1 <0>        -0.0545
     19 Cl3         4.3321   -1.4728   -0.5486 Cl        1 <0>        -0.0476
     20 H1         -3.6794   -0.3697   -3.0304 H         1 <0>         0.1410
     21 H2         -1.6776    0.9995   -2.6123 H         1 <0>         0.1542
     22 H3         -3.1398    1.9301    1.2970 H         1 <0>         0.1355
     23 H4         -5.4122   -0.5822   -1.2962 H         1 <0>         0.1379
     24 H5         -1.2263    3.2018    0.0139 H         1 <0>         0.4115
     25 H6          1.0989    3.4238    0.0260 H         1 <0>         0.4132
     26 H7          1.9713    0.0540   -0.0979 H         1 <0>         0.1682
     27 H8          5.9364    0.6541   -1.5533 H         1 <0>         0.1482
     28 H9          5.4471    3.0372   -1.9232 H         1 <0>         0.1507
@<TRIPOS>BOND
     1    1    6 ar
     2    1    2 ar
     3    1   20 1
     4    2    3 ar
     5    2   21 1
     6    3    4 ar
     7    3    8 1
     8    4    5 ar
     9    4   22 1
    10    5    6 ar
    11    5    7 1
    12    6   23 1
    13    8    9 1
    14    8   24 1
    15    9   10 2
    16    9   11 1
    17   11   12 1
    18   11   25 1
    19   12   17 ar
    20   12   13 ar
    21   13   14 ar
    22   13   26 1
    23   14   15 ar
    24   14   19 1
    25   15   16 ar
    26   15   27 1
    27   16   17 ar
    28   16   28 1
    29   17   18 1
