@<TRIPOS>MOLECULE
ZINC40257937
   20    21     0     0     0
SMALL
USER_CHARGES

@<TRIPOS>ATOM
      1 C1         -0.0163    1.3509    0.0095 C.2       1 <0>        -0.1255
      2 C2          1.1836    2.0381    0.0017 C.2       1 <0>        -0.1396
      3 C3          2.3434    1.3347   -0.0131 C.2       1 <0>        -0.1122
      4 S1          1.7533   -0.3502   -0.0166 S.3       1 <0>         0.1073
      5 C4          0.0021   -0.0041    0.0020 C.2       1 <0>        -0.1852
      6 C5         -1.1557   -0.9687    0.0079 C.3       1 <0>         0.2843
      7 H1         -2.0496   -0.4612    0.3707 H         1 <0>         0.1482
      8 C6         -1.3971   -1.4723   -1.3918 C.2       1 <0>        -0.1772
      9 C7         -2.2623   -1.0108   -2.3273 C.2       1 <0>        -0.1356
     10 C8         -2.3143   -1.6361   -3.5593 C.2       1 <0>        -0.1104
     11 C9         -1.4974   -2.6929   -3.7947 C.2       1 <0>        -0.1705
     12 S2         -0.6119   -2.8264   -2.2503 S.3       1 <0>         0.1155
     13 Br1        -1.3335   -3.7467   -5.3563 Br        1 <0>         0.0454
     14 O1         -0.8529   -2.0712    0.8651 O.3       1 <0>        -0.5314
     15 Cl1         3.9774    1.9208   -0.0256 Cl        1 <0>         0.0237
     16 H2         -0.9542    1.8861    0.0257 H         1 <0>         0.1460
     17 H3          1.1971    3.1180    0.0070 H         1 <0>         0.1469
     18 H4         -2.9021   -0.1674   -2.1134 H         1 <0>         0.1456
     19 H5         -2.9950   -1.2886   -4.3223 H         1 <0>         0.1460
     20 H6         -0.0673   -2.5699    0.6019 H         1 <0>         0.3786
@<TRIPOS>BOND
     1    1    5 2
     2    1    2 1
     3    1   16 1
     4    2    3 2
     5    2   17 1
     6    3    4 1
     7    3   15 1
     8    4    5 1
     9    5    6 1
    10    6    7 1
    11    6    8 1
    12    6   14 1
    13    8   12 1
    14    8    9 2
    15    9   10 1
    16    9   18 1
    17   10   11 2
    18   10   19 1
    19   11   12 1
    20   11   13 1
    21   14   20 1
