@<TRIPOS>MOLECULE
ZINC62350823
   46    48     0     0     0
SMALL
USER_CHARGES

@<TRIPOS>ATOM
      1 C1          0.2243    1.3850    0.1915 C.3       1 <0>        -0.1301
      2 C2         -0.1501   -0.0943    0.0808 C.3       1 <0>        -0.0708
      3 C3          0.4355   -0.8556   -1.1475 C.3       1 <0>        -0.1130
      4 C4          0.3557   -2.3489   -0.7561 C.3       1 <0>        -0.1224
      5 C5         -0.2706   -2.3493    0.6718 C.3       1 <0>        -0.0933
      6 H1         -0.1083   -3.2505    1.2631 H         1 <0>         0.0996
      7 C6          0.3309   -1.0210    1.2527 C.3       1 <0>        -0.0642
      8 C7          1.8567   -1.0768    1.3509 C.3       1 <0>        -0.1394
      9 C8         -0.3098   -0.6368    2.5879 C.3       1 <0>        -0.1639
     10 C9         -1.7584   -1.9411    0.4456 C.3       1 <0>        -0.1368
     11 C10        -1.6766   -0.4121    0.0700 C.3       1 <0>         0.1497
     12 H2         -2.0895   -0.2591   -0.9271 H         1 <0>         0.0869
     13 N1         -2.3788    0.4219    1.0485 N.pl3     1 <0>        -0.7327
     14 C11        -3.7569    0.6199    0.9363 C.ar      1 <0>         0.3035
     15 C12        -4.4869   -0.0864   -0.0116 C.ar      1 <0>        -0.2100
     16 C13        -5.8492    0.1114   -0.1196 C.ar      1 <0>        -0.0197
     17 C14        -6.4870    1.0118    0.7143 C.ar      1 <0>        -0.1946
     18 C15        -5.7635    1.7168    1.6584 C.ar      1 <0>         0.0205
     19 C16        -4.4015    1.5191    1.7759 C.ar      1 <0>        -0.7331
     20 S1         -3.4817    2.4122    2.9846 S.o2      1 <0>         2.4935
     21 O1         -2.3712    2.9439    2.2752 O.2       1 <0>        -0.9365
     22 O2         -4.4301    3.2748    3.5976 O.2       1 <0>        -0.9372
     23 C17        -2.9237    1.1557    4.1679 C.3       1 <0>        -0.6679
     24 H3          1.3093    1.4836    0.2264 H         1 <0>         0.0631
     25 H4         -0.1617    1.9232   -0.6742 H         1 <0>         0.0621
     26 H5         -0.2079    1.8022    1.1010 H         1 <0>         0.0691
     27 H6         -0.1658   -0.6630   -2.0360 H         1 <0>         0.0664
     28 H7          1.4714   -0.5623   -1.3178 H         1 <0>         0.0724
     29 H8         -0.2849   -2.8905   -1.4521 H         1 <0>         0.0662
     30 H9          1.3524   -2.7897   -0.7340 H         1 <0>         0.0674
     31 H10         2.2463   -0.0744    1.5282 H         1 <0>         0.0579
     32 H11         2.1441   -1.7295    2.1752 H         1 <0>         0.0558
     33 H12         2.2667   -1.4664    0.4191 H         1 <0>         0.0633
     34 H13        -1.3774   -0.8541    2.5545 H         1 <0>         0.0668
     35 H14         0.1528   -1.2103    3.3912 H         1 <0>         0.0643
     36 H15        -0.1611    0.4277    2.7693 H         1 <0>         0.0590
     37 H16        -2.1966   -2.5325   -0.3583 H         1 <0>         0.0758
     38 H17        -2.3305   -2.0652    1.3651 H         1 <0>         0.0715
     39 H18        -1.8868    0.8366    1.7743 H         1 <0>         0.3990
     40 H19        -3.9893   -0.7891   -0.6635 H         1 <0>         0.1305
     41 H20        -6.4172   -0.4373   -0.8562 H         1 <0>         0.1291
     42 H21        -7.5526    1.1649    0.6275 H         1 <0>         0.1293
     43 H22        -6.2646    2.4196    2.3075 H         1 <0>         0.1433
     44 H23        -2.2328    0.4726    3.6738 H         1 <0>         0.1251
     45 H24        -2.4191    1.6416    5.0030 H         1 <0>         0.1373
     46 H25        -3.7838    0.5977    4.5381 H         1 <0>         0.1376
@<TRIPOS>BOND
     1    1    2 1
     2    1   24 1
     3    1   25 1
     4    1   26 1
     5    2    7 1
     6    2   11 1
     7    2    3 1
     8    3    4 1
     9    3   27 1
    10    3   28 1
    11    4    5 1
    12    4   29 1
    13    4   30 1
    14    5    6 1
    15    5    7 1
    16    5   10 1
    17    7    8 1
    18    7    9 1
    19    8   31 1
    20    8   32 1
    21    8   33 1
    22    9   34 1
    23    9   35 1
    24    9   36 1
    25   10   11 1
    26   10   37 1
    27   10   38 1
    28   11   12 1
    29   11   13 1
    30   13   14 1
    31   13   39 1
    32   14   19 ar
    33   14   15 ar
    34   15   16 ar
    35   15   40 1
    36   16   17 ar
    37   16   41 1
    38   17   18 ar
    39   17   42 1
    40   18   19 ar
    41   18   43 1
    42   19   20 1
    43   20   21 2
    44   20   22 2
    45   20   23 1
    46   23   44 1
    47   23   45 1
    48   23   46 1
