@<TRIPOS>MOLECULE
ZINC63395262
   54    58     0     0     0
SMALL
USER_CHARGES

@<TRIPOS>ATOM
      1 C1         -0.0167    1.3781    0.0096 C.ar      1 <0>        -0.1128
      2 C2          1.1709    2.0855    0.0021 C.ar      1 <0>        -0.1147
      3 C3          2.3773    1.4107   -0.0130 C.ar      1 <0>        -0.1010
      4 C4          2.3960    0.0285   -0.0201 C.ar      1 <0>        -0.0968
      5 C5          1.2084   -0.6789   -0.0117 C.ar      1 <0>        -0.1074
      6 C6          0.0021   -0.0041    0.0020 C.ar      1 <0>        -0.1189
      7 C7          3.7112   -0.7071   -0.0376 C.3       1 <0>         0.2353
      8 C8          4.0438   -1.1746    1.3559 C.ar      1 <0>        -0.0994
      9 C9          3.4555   -2.3197    1.8597 C.ar      1 <0>        -0.1135
     10 C10         3.7605   -2.7485    3.1379 C.ar      1 <0>        -0.1120
     11 C11         4.6543   -2.0326    3.9122 C.ar      1 <0>        -0.1090
     12 C12         5.2433   -0.8881    3.4082 C.ar      1 <0>        -0.1104
     13 C13         4.9415   -0.4616    2.1284 C.ar      1 <0>        -0.1027
     14 N1          3.6115   -1.8645   -0.9302 N.am      1 <0>        -0.7058
     15 C14         3.8246   -1.7159   -2.2527 C.2       1 <0>         0.5189
     16 O1          4.0988   -0.6240   -2.7038 O.2       1 <0>        -0.5383
     17 C15         3.7220   -2.9064   -3.1709 C.3       1 <0>        -0.1116
     18 H1          2.7185   -3.3279   -3.1136 H         1 <0>         0.1324
     19 C16         4.7498   -3.9654   -2.7580 C.3       1 <0>        -0.1214
     20 C17         6.1590   -3.3792   -2.7077 C.3       1 <0>        -0.1279
     21 C18         6.5904   -2.9165   -4.1100 C.3       1 <0>        -0.0876
     22 C19         5.4821   -2.0382   -4.6344 C.2       1 <0>         0.0709
     23 C20         5.4958   -0.8202   -5.1604 C.ar      1 <0>        -0.1444
     24 C21         6.6037    0.0729   -5.5363 C.ar      1 <0>         0.0074
     25 C22         6.2515    1.2869   -6.0381 C.ar      1 <0>        -0.0829
     26 C23         4.9233    1.6964   -6.2011 C.ar      1 <0>         0.0479
     27 C24         3.8433    0.9363   -5.8907 C.ar      1 <0>        -0.1849
     28 C25         4.0862   -0.3655   -5.3637 C.ar      1 <0>         0.3701
     29 N2          3.2521   -1.2992   -5.0114 N.pl3     1 <0>        -0.5646
     30 C26         4.0169   -2.4741   -4.6084 C.3       1 <0>         0.1067
     31 H2          3.8546   -3.3042   -5.2959 H         1 <0>         0.1792
     32 Cl1         7.5143    2.3851   -6.4995 Cl        1 <0>        -0.0254
     33 H3         -0.9591    1.9053    0.0259 H         1 <0>         0.1255
     34 H4          1.1563    3.1654    0.0076 H         1 <0>         0.1263
     35 H5          3.3051    1.9634   -0.0196 H         1 <0>         0.1216
     36 H6          1.2231   -1.7588   -0.0179 H         1 <0>         0.1141
     37 H7         -0.9258   -0.5567    0.0082 H         1 <0>         0.1240
     38 H8          4.4960   -0.0399   -0.3940 H         1 <0>         0.1061
     39 H9          2.7572   -2.8790    1.2547 H         1 <0>         0.1160
     40 H10         3.3004   -3.6427    3.5317 H         1 <0>         0.1275
     41 H11         4.8921   -2.3673    4.9112 H         1 <0>         0.1282
     42 H12         5.9413   -0.3286    4.0133 H         1 <0>         0.1290
     43 H13         5.4045    0.4305    1.7332 H         1 <0>         0.1240
     44 H14         3.3922   -2.7378   -0.5694 H         1 <0>         0.4055
     45 H15         4.4884   -4.3517   -1.7728 H         1 <0>         0.0989
     46 H16         4.7288   -4.7833   -3.4782 H         1 <0>         0.0979
     47 H17         6.1724   -2.5284   -2.0265 H         1 <0>         0.0768
     48 H18         6.8536   -4.1384   -2.3481 H         1 <0>         0.1040
     49 H19         7.5184   -2.3483   -4.0464 H         1 <0>         0.1106
     50 H20         6.7236   -3.7790   -4.7630 H         1 <0>         0.1240
     51 H21         7.6370   -0.2190   -5.4201 H         1 <0>         0.1748
     52 H22         4.7461    2.6840   -6.6005 H         1 <0>         0.1639
     53 H23         2.8382    1.3034   -6.0374 H         1 <0>         0.1736
     54 H24         2.2848   -1.2276   -5.0151 H         1 <0>         0.4523
@<TRIPOS>BOND
     1    1    6 ar
     2    1    2 ar
     3    1   33 1
     4    2    3 ar
     5    2   34 1
     6    3    4 ar
     7    3   35 1
     8    4    5 ar
     9    4    7 1
    10    5    6 ar
    11    5   36 1
    12    6   37 1
    13    7    8 1
    14    7   14 1
    15    7   38 1
    16    8   13 ar
    17    8    9 ar
    18    9   10 ar
    19    9   39 1
    20   10   11 ar
    21   10   40 1
    22   11   12 ar
    23   11   41 1
    24   12   13 ar
    25   12   42 1
    26   13   43 1
    27   14   15 am
    28   14   44 1
    29   15   16 2
    30   15   17 1
    31   17   18 1
    32   17   30 1
    33   17   19 1
    34   19   20 1
    35   19   45 1
    36   19   46 1
    37   20   21 1
    38   20   47 1
    39   20   48 1
    40   21   22 1
    41   21   49 1
    42   21   50 1
    43   22   30 1
    44   22   23 2
    45   23   28 ar
    46   23   24 ar
    47   24   25 ar
    48   24   51 1
    49   25   26 ar
    50   25   32 1
    51   26   27 ar
    52   26   52 1
    53   27   28 ar
    54   27   53 1
    55   28   29 2
    56   29   30 1
    57   29   54 1
    58   30   31 1
