@<TRIPOS>MOLECULE
ZINC63552082
   57    60     0     0     0
SMALL
USER_CHARGES

@<TRIPOS>ATOM
      1 C1         -0.0699    2.2020    0.7576 C.3       1 <0>        -0.1283
      2 C2          0.1551    0.7145    0.8453 C.ar      1 <0>        -0.1101
      3 C3          0.3826   -0.0119   -0.3316 C.ar      1 <0>         0.0574
      4 C4          0.5924   -1.3454   -0.3366 C.ar      1 <0>        -0.2060
      5 C5          0.5894   -2.0779    0.8825 C.ar      1 <0>         0.3269
      6 N1          0.7642   -3.3523    1.1355 N.pl3     1 <0>        -0.5838
      7 C6          0.6567   -3.5607    2.5838 C.3       1 <0>         0.0608
      8 C7          0.3859   -2.1975    3.1800 C.2       1 <0>         0.0662
      9 C8          0.3515   -1.3336    2.1398 C.ar      1 <0>        -0.1594
     10 C9          0.1378    0.1162    2.0581 C.ar      1 <0>        -0.0251
     11 C10         0.1926   -1.8683    4.6379 C.3       1 <0>        -0.1052
     12 C11        -1.2699   -2.0993    5.0233 C.3       1 <0>         0.1271
     13 N2         -1.4577   -1.7793    6.4406 N.am      1 <0>        -0.7316
     14 C12        -2.6746   -1.9091    7.0052 C.2       1 <0>         0.5716
     15 O1         -3.6166   -2.2919    6.3383 O.2       1 <0>        -0.5292
     16 C13        -2.8638   -1.5870    8.4320 C.ar      1 <0>        -0.1831
     17 C14        -1.7609   -1.2993    9.2397 C.ar      1 <0>        -0.0668
     18 C15        -1.9441   -0.9991   10.5719 C.ar      1 <0>        -0.1428
     19 C16        -3.2183   -0.9809   11.1165 C.ar      1 <0>        -0.0626
     20 C17        -4.3176   -1.2629   10.3313 C.ar      1 <0>        -0.1324
     21 C18        -4.1529   -1.5620    8.9851 C.ar      1 <0>         0.2167
     22 N3         -5.2605   -1.8406    8.1900 N.am      1 <0>        -0.6526
     23 C19        -6.3141   -2.5011    8.7097 C.2       1 <0>         0.5966
     24 O2         -6.3360   -2.7752    9.8955 O.2       1 <0>        -0.5126
     25 C20        -7.4326   -2.8892    7.8477 C.2       1 <0>        -0.3108
     26 C21        -8.1203   -4.0062    8.1120 C.2       1 <0>         0.1903
     27 O3         -9.1391   -4.4865    7.3949 O.3       1 <0>        -0.2996
     28 C22        -9.9132   -3.6510    6.5424 C.3       1 <0>         0.0552
     29 C23        -8.9827   -2.9709    5.5237 C.3       1 <0>        -0.1433
     30 S1         -7.8719   -1.8762    6.4685 S.3       1 <0>        -0.1139
     31 C24        -7.7078   -4.7931    9.3293 C.3       1 <0>        -0.1118
     32 H1          0.8870    2.7191    0.8291 H         1 <0>         0.0875
     33 H2         -0.5426    2.4425   -0.1947 H         1 <0>         0.0821
     34 H3         -0.7169    2.5204    1.5750 H         1 <0>         0.0813
     35 H4          0.3899    0.5169   -1.2733 H         1 <0>         0.1611
     36 H5          0.7631   -1.8587   -1.2713 H         1 <0>         0.1620
     37 H6         -0.1677   -4.2383    2.8056 H         1 <0>         0.1745
     38 H7          1.5907   -3.9634    2.9757 H         1 <0>         0.1750
     39 H8         -0.0347    0.6961    2.9528 H         1 <0>         0.1599
     40 H9          0.8335   -2.5094    5.2431 H         1 <0>         0.1191
     41 H10         0.4539   -0.8246    4.8124 H         1 <0>         0.1164
     42 H11        -1.9108   -1.4582    4.4181 H         1 <0>         0.0806
     43 H12        -1.5312   -3.1430    4.8488 H         1 <0>         0.0790
     44 H13        -0.7063   -1.4740    6.9726 H         1 <0>         0.4060
     45 H14        -0.7657   -1.3125    8.8204 H         1 <0>         0.1272
     46 H15        -1.0904   -0.7773   11.1950 H         1 <0>         0.1335
     47 H16        -3.3518   -0.7448   12.1619 H         1 <0>         0.1360
     48 H17        -5.3074   -1.2466   10.7632 H         1 <0>         0.1509
     49 H18        -5.2742   -1.5594    7.2617 H         1 <0>         0.4246
     50 H19       -10.6526   -4.2536    6.0150 H         1 <0>         0.1325
     51 H20       -10.4188   -2.8910    7.1382 H         1 <0>         0.0865
     52 H21        -8.4031   -3.7236    4.9894 H         1 <0>         0.1040
     53 H22        -9.5701   -2.3829    4.8185 H         1 <0>         0.1320
     54 H23        -8.1880   -4.3732   10.2132 H         1 <0>         0.1022
     55 H24        -8.0120   -5.8329    9.2100 H         1 <0>         0.0762
     56 H25        -6.6252   -4.7422    9.4452 H         1 <0>         0.0963
     57 H26         0.9356   -4.0421    0.4755 H         1 <0>         0.4561
@<TRIPOS>BOND
     1    1    2 1
     2    1   32 1
     3    1   33 1
     4    1   34 1
     5    2   10 ar
     6    2    3 ar
     7    3    4 ar
     8    3   35 1
     9    4    5 ar
    10    4   36 1
    11    5    9 ar
    12    5    6 2
    13    6    7 1
    14    6   57 1
    15    7    8 1
    16    7   37 1
    17    7   38 1
    18    8    9 2
    19    8   11 1
    20    9   10 ar
    21   10   39 1
    22   11   12 1
    23   11   40 1
    24   11   41 1
    25   12   13 1
    26   12   42 1
    27   12   43 1
    28   13   14 am
    29   13   44 1
    30   14   15 2
    31   14   16 1
    32   16   21 ar
    33   16   17 ar
    34   17   18 ar
    35   17   45 1
    36   18   19 ar
    37   18   46 1
    38   19   20 ar
    39   19   47 1
    40   20   21 ar
    41   20   48 1
    42   21   22 1
    43   22   23 am
    44   22   49 1
    45   23   24 2
    46   23   25 1
    47   25   30 1
    48   25   26 2
    49   26   27 1
    50   26   31 1
    51   27   28 1
    52   28   29 1
    53   28   50 1
    54   28   51 1
    55   29   30 1
    56   29   52 1
    57   29   53 1
    58   31   54 1
    59   31   55 1
    60   31   56 1
