@<TRIPOS>MOLECULE
ZINC03390997
   39    41     0     0     0
SMALL
USER_CHARGES
N-[(2,4-dichlorophenyl)methyleneamino]-5-methyl-4,5,6,7-tetrahydrobenzothiophene-2-carboxamide
@<TRIPOS>ATOM
      1 C1          0.8301   -1.9980    1.2590 C.3       1 <0>        -0.1489
      2 C2          0.9913   -0.4889    1.0656 C.3       1 <0>        -0.0935
      3 H1          0.7883    0.0205    2.0077 H         1 <0>         0.0740
      4 C3          0.0021   -0.0041    0.0020 C.3       1 <0>        -0.1101
      5 C4         -0.0187    1.5312    0.0105 C.3       1 <0>        -0.0463
      6 C5          1.3959    2.0228   -0.0004 C.2       1 <0>        -0.1471
      7 C6          2.5220    1.2970    0.2657 C.2       1 <0>        -0.1400
      8 C7          3.7303    1.9709    0.1930 C.2       1 <0>        -0.0504
      9 C8          3.7102    3.3134   -0.1389 C.2       1 <0>        -0.2467
     10 S1          1.9629    3.6118   -0.3471 S.3       1 <0>         0.1378
     11 C9          4.8307    4.2467   -0.2825 C.2       1 <0>         0.6271
     12 O1          5.9710    3.8614   -0.1002 O.2       1 <0>        -0.4829
     13 N1          4.5989    5.5316   -0.6165 N.am      1 <0>        -0.5812
     14 N2          5.6702    6.4240   -0.7538 N.2       1 <0>        -0.1900
     15 C10         5.4469    7.6615   -1.0754 C.2       1 <0>         0.0909
     16 C11         6.5743    8.6005   -1.2199 C.ar      1 <0>        -0.0422
     17 C12         6.3380    9.9319   -1.5717 C.ar      1 <0>        -0.0658
     18 C13         7.3963   10.8063   -1.7001 C.ar      1 <0>        -0.1112
     19 C14         8.6930   10.3653   -1.4925 C.ar      1 <0>        -0.0110
     20 C15         8.9357    9.0464   -1.1489 C.ar      1 <0>        -0.1092
     21 C16         7.8850    8.1614   -1.0113 C.ar      1 <0>        -0.0039
     22 Cl1         8.1907    6.5077   -0.5809 Cl        1 <0>        -0.0011
     23 Cl2        10.0197   11.4718   -1.6635 Cl        1 <0>        -0.0518
     24 C17         2.4229   -0.1836    0.6238 C.3       1 <0>        -0.0534
     25 H2          1.0296   -2.5084    0.3168 H         1 <0>         0.0569
     26 H3          1.5338   -2.3445    2.0160 H         1 <0>         0.0574
     27 H4         -0.1877   -2.2163    1.5821 H         1 <0>         0.0582
     28 H5         -0.9939   -0.3843    0.2289 H         1 <0>         0.0769
     29 H6          0.3143   -0.3599   -0.9798 H         1 <0>         0.0701
     30 H7         -0.5410    1.8962   -0.8739 H         1 <0>         0.0866
     31 H8         -0.5240    1.8866    0.9085 H         1 <0>         0.0895
     32 H9          4.6622    1.4619    0.3896 H         1 <0>         0.1470
     33 H10         3.6903    5.8386   -0.7618 H         1 <0>         0.3838
     34 H11         4.4353    8.0033   -1.2372 H         1 <0>         0.1307
     35 H12         5.3281   10.2763   -1.7387 H         1 <0>         0.1487
     36 H13         7.2142   11.8368   -1.9673 H         1 <0>         0.1460
     37 H14         9.9490    8.7090   -0.9884 H         1 <0>         0.1482
     38 H15         3.1123   -0.4097    1.4372 H         1 <0>         0.0781
     39 H16         2.6728   -0.7879   -0.2483 H         1 <0>         0.0789
@<TRIPOS>BOND
     1    1    2 1
     2    1   25 1
     3    1   26 1
     4    1   27 1
     5    2    3 1
     6    2   24 1
     7    2    4 1
     8    4    5 1
     9    4   28 1
    10    4   29 1
    11    5    6 1
    12    5   30 1
    13    5   31 1
    14    6   10 1
    15    6    7 2
    16    7    8 1
    17    7   24 1
    18    8    9 2
    19    8   32 1
    20    9   10 1
    21    9   11 1
    22   11   12 2
    23   11   13 am
    24   13   14 1
    25   13   33 1
    26   14   15 2
    27   15   16 1
    28   15   34 1
    29   16   21 ar
    30   16   17 ar
    31   17   18 ar
    32   17   35 1
    33   18   19 ar
    34   18   36 1
    35   19   20 ar
    36   19   23 1
    37   20   21 ar
    38   20   37 1
    39   21   22 1
    40   24   38 1
    41   24   39 1
