@<TRIPOS>MOLECULE
ZINC20027614
   42    45     0     0     0
SMALL
USER_CHARGES
N-[(3R)-1,2,3,4-tetrahydroquinolin-3-yl]indane-5-carboxamide
@<TRIPOS>ATOM
      1 C1         -3.6760  -10.0598    2.2829 C.ar      1 <0>        -0.1755
      2 C2         -4.9070   -9.9482    1.6624 C.ar      1 <0>        -0.0755
      3 C3         -5.1966   -8.8323    0.9034 C.ar      1 <0>        -0.1911
      4 C4         -4.2514   -7.8218    0.7627 C.ar      1 <0>         0.2231
      5 C5         -3.0165   -7.9362    1.3816 C.ar      1 <0>        -0.1590
      6 C6         -2.7351   -9.0583    2.1432 C.ar      1 <0>        -0.0718
      7 C7         -1.9645   -6.8676    1.2424 C.3       1 <0>        -0.0747
      8 C8         -2.6004   -5.5419    0.8246 C.3       1 <0>         0.1321
      9 H1         -3.1791   -5.1066    1.6527 H         1 <0>         0.0957
     10 C9         -3.4867   -5.7828   -0.4044 C.3       1 <0>         0.1181
     11 N1         -4.5662   -6.6970   -0.0076 N.pl3     1 <0>        -0.7572
     12 N2         -1.5497   -4.5773    0.4906 N.am      1 <0>        -0.7343
     13 C10        -1.7979   -3.2551    0.5727 C.2       1 <0>         0.5637
     14 O1         -2.8936   -2.8631    0.9238 O.2       1 <0>        -0.5375
     15 C11        -0.7376   -2.2815    0.2356 C.ar      1 <0>        -0.1357
     16 C12         0.5221   -2.7275   -0.1681 C.ar      1 <0>        -0.0857
     17 C13         1.5041   -1.8128   -0.4811 C.ar      1 <0>        -0.1151
     18 C14         1.2487   -0.4524   -0.3977 C.ar      1 <0>        -0.0718
     19 C15         0.0021   -0.0041    0.0020 C.ar      1 <0>        -0.1060
     20 C16        -0.9903   -0.9128    0.3187 C.ar      1 <0>        -0.0480
     21 C17        -0.0185    1.5097    0.0103 C.3       1 <0>        -0.0886
     22 C18         1.4654    1.9340   -0.0015 C.3       1 <0>        -0.1174
     23 C19         2.1489    0.7308   -0.6849 C.3       1 <0>        -0.0840
     24 H2         -3.4497  -10.9323    2.8778 H         1 <0>         0.1187
     25 H3         -5.6409  -10.7329    1.7718 H         1 <0>         0.1208
     26 H4         -6.1574   -8.7439    0.4183 H         1 <0>         0.1203
     27 H5         -1.7754   -9.1506    2.6300 H         1 <0>         0.1198
     28 H6         -1.4518   -6.7301    2.2059 H         1 <0>         0.0818
     29 H7         -1.2336   -7.1700    0.4780 H         1 <0>         0.0773
     30 H8         -3.9047   -4.8252   -0.7483 H         1 <0>         0.0828
     31 H9         -2.8844   -6.2300   -1.2089 H         1 <0>         0.0586
     32 H10        -5.6019   -6.4918   -0.3161 H         1 <0>         0.4256
     33 H11        -0.5582   -4.9321    0.1728 H         1 <0>         0.4189
     34 H12         0.7263   -3.7858   -0.2352 H         1 <0>         0.1276
     35 H13         2.4789   -2.1576   -0.7931 H         1 <0>         0.1278
     36 H14        -1.9630   -0.5621    0.6305 H         1 <0>         0.1333
     37 H15        -0.5505    1.8740   -0.8809 H         1 <0>         0.0828
     38 H16        -0.5335    1.8645    0.9153 H         1 <0>         0.0782
     39 H17         1.5750    2.8685   -0.5713 H         1 <0>         0.0803
     40 H18         1.8099    2.0917    1.0312 H         1 <0>         0.0753
     41 H19         3.1481    0.5416   -0.2657 H         1 <0>         0.0800
     42 H20         2.2289    0.8752   -1.7724 H         1 <0>         0.0862
@<TRIPOS>BOND
     1    1    6 ar
     2    1    2 ar
     3    1   24 1
     4    2    3 ar
     5    2   25 1
     6    3    4 ar
     7    3   26 1
     8    4   11 1
     9    4    5 ar
    10    5    6 ar
    11    5    7 1
    12    6   27 1
    13    7    8 1
    14    7   28 1
    15    7   29 1
    16    8    9 1
    17    8   10 1
    18    8   12 1
    19   10   11 1
    20   10   30 1
    21   10   31 1
    22   11   32 1
    23   12   13 am
    24   12   33 1
    25   13   14 2
    26   13   15 1
    27   15   20 ar
    28   15   16 ar
    29   16   17 ar
    30   16   34 1
    31   17   18 ar
    32   17   35 1
    33   18   23 1
    34   18   19 ar
    35   19   20 ar
    36   19   21 1
    37   20   36 1
    38   21   22 1
    39   21   37 1
    40   21   38 1
    41   22   23 1
    42   22   39 1
    43   22   40 1
    44   23   41 1
    45   23   42 1
