@<TRIPOS>MOLECULE
ZINC36306059
   70    73     0     0     0
SMALL
USER_CHARGES

@<TRIPOS>ATOM
      1 C1          0.7119    1.2116    0.8424 C.3       1 <0>         0.0848
      2 N1          0.2038   -0.1473    0.6387 N.pl3     1 <0>        -0.3513
      3 C2          0.3003   -0.8719   -0.5057 C.2       1 <0>         0.2950
      4 C3         -0.2907   -2.0740   -0.2853 C.2       1 <0>        -0.2930
      5 C4         -0.7648   -2.0840    1.0401 C.2       1 <0>         0.1507
      6 N2         -0.4611   -0.9287    1.5922 N.2       1 <0>        -0.2330
      7 C5         -1.4776   -3.2051    1.7018 C.ar      1 <0>        -0.0423
      8 C6         -2.4791   -3.8951    1.0221 C.ar      1 <0>        -0.1066
      9 C7         -3.1389   -4.9368    1.6422 C.ar      1 <0>        -0.1137
     10 C8         -2.8074   -5.2961    2.9361 C.ar      1 <0>        -0.0968
     11 C9         -1.8143   -4.6142    3.6158 C.ar      1 <0>        -0.1110
     12 C10        -1.1439   -3.5749    3.0029 C.ar      1 <0>        -0.0860
     13 C11        -0.4174   -3.1972   -1.2821 C.3       1 <0>         0.0778
     14 N3          0.8253   -3.9804   -1.2979 N.4       1 <0>        -0.3792
     15 C12         0.7292   -5.0307   -2.3205 C.3       1 <0>         0.0713
     16 C13         0.5161   -4.3982   -3.6717 C.2       1 <0>        -0.1037
     17 C14         1.4805   -4.0931   -4.5583 C.2       1 <0>        -0.1360
     18 C15         0.8388   -3.5214   -5.6810 C.2       1 <0>        -0.2167
     19 C16        -0.4794   -3.5114   -5.4132 C.2       1 <0>         0.0095
     20 O1         -0.6695   -4.0490   -4.1972 O.3       1 <0>        -0.1712
     21 C17         1.0323   -4.5969    0.0193 C.3       1 <0>        -0.0477
     22 C18         2.4231   -5.2323    0.0720 C.3       1 <0>         0.0883
     23 H1          3.1674   -4.5049   -0.2520 H         1 <0>         0.1215
     24 C19         2.7293   -5.6711    1.5054 C.3       1 <0>        -0.1421
     25 C20         4.1657   -6.1920    1.5835 C.3       1 <0>        -0.0882
     26 C21         4.4673   -6.6243    2.9953 C.2       1 <0>        -0.1717
     27 C22         4.9003   -7.8381    3.2304 C.2       1 <0>        -0.1770
     28 O2          2.4604   -6.3695   -0.7925 O.3       1 <0>        -0.5501
     29 O3          0.8829   -0.4666   -1.6627 O.3       1 <0>        -0.2381
     30 C23         0.1279    0.2429   -2.5431 C.ar      1 <0>         0.0514
     31 C24        -1.1607    0.6261   -2.2006 C.ar      1 <0>        -0.1431
     32 C25        -1.9275    1.3469   -3.0951 C.ar      1 <0>        -0.1131
     33 C26        -1.4094    1.6875   -4.3358 C.ar      1 <0>         0.1227
     34 C27        -0.1212    1.3041   -4.6786 C.ar      1 <0>        -0.1713
     35 C28         0.6481    0.5887   -3.7819 C.ar      1 <0>        -0.0825
     36 O4         -2.1645    2.3971   -5.2163 O.3       1 <0>        -0.3109
     37 C29        -1.5674    2.7132   -6.4755 C.3       1 <0>         0.0231
     38 H2          1.7049    1.1650    1.2895 H         1 <0>         0.0943
     39 H3          0.7691    1.7257   -0.1170 H         1 <0>         0.0970
     40 H4          0.0397    1.7551    1.5064 H         1 <0>         0.1058
     41 H5         -2.7389   -3.6151    0.0119 H         1 <0>         0.1256
     42 H6         -3.9156   -5.4721    1.1163 H         1 <0>         0.1332
     43 H7         -3.3262   -6.1118    3.4177 H         1 <0>         0.1321
     44 H8         -1.5597   -4.8986    4.6260 H         1 <0>         0.1336
     45 H9         -0.3653   -3.0463    3.5328 H         1 <0>         0.1299
     46 H10        -1.2496   -3.8418   -0.9993 H         1 <0>         0.1397
     47 H11        -0.5989   -2.7837   -2.2742 H         1 <0>         0.1342
     48 H12         1.6515   -5.6115   -2.3326 H         1 <0>         0.1840
     49 H13        -0.1103   -5.6866   -2.0899 H         1 <0>         0.1383
     50 H14         2.5415   -4.2534   -4.4359 H         1 <0>         0.1599
     51 H15         1.3155   -3.1614   -6.5807 H         1 <0>         0.1606
     52 H16        -1.2539   -3.1381   -6.0668 H         1 <0>         0.2136
     53 H17         0.9515   -3.8344    0.7940 H         1 <0>         0.1408
     54 H18         0.2758   -5.3641    0.1843 H         1 <0>         0.1363
     55 H19         2.6139   -4.8213    2.1781 H         1 <0>         0.0833
     56 H20         2.0394   -6.4626    1.7983 H         1 <0>         0.0816
     57 H21         4.2811   -7.0419    0.9108 H         1 <0>         0.0781
     58 H22         4.8556   -5.4006    1.2907 H         1 <0>         0.0735
     59 H23         4.3263   -5.9334    3.8134 H         1 <0>         0.1091
     60 H24         5.1164   -8.1479    4.2422 H         1 <0>         0.1011
     61 H25         5.0413   -8.5290    2.4123 H         1 <0>         0.0983
     62 H26         1.8227   -7.0592   -0.5629 H         1 <0>         0.3907
     63 H27        -1.5643    0.3606   -1.2347 H         1 <0>         0.1298
     64 H28        -2.9308    1.6449   -2.8286 H         1 <0>         0.1417
     65 H29         0.2820    1.5691   -5.6448 H         1 <0>         0.1449
     66 H30         1.6529    0.2945   -4.0468 H         1 <0>         0.1399
     67 H31        -0.6697    3.3096   -6.3125 H         1 <0>         0.0601
     68 H32        -1.3021    1.7915   -6.9934 H         1 <0>         0.0589
     69 H33        -2.2748    3.2796   -7.0811 H         1 <0>         0.1080
     70 H34         1.6026   -3.3735   -1.5112 H         1 <0>         0.4222
@<TRIPOS>BOND
     1    1    2 1
     2    1   38 1
     3    1   39 1
     4    1   40 1
     5    2    6 1
     6    2    3 1
     7    3    4 2
     8    3   29 1
     9    4    5 1
    10    4   13 1
    11    5    6 2
    12    5    7 1
    13    7   12 ar
    14    7    8 ar
    15    8    9 ar
    16    8   41 1
    17    9   10 ar
    18    9   42 1
    19   10   11 ar
    20   10   43 1
    21   11   12 ar
    22   11   44 1
    23   12   45 1
    24   13   14 1
    25   13   46 1
    26   13   47 1
    27   14   15 1
    28   14   21 1
    29   14   70 1
    30   15   16 1
    31   15   48 1
    32   15   49 1
    33   16   20 1
    34   16   17 2
    35   17   18 1
    36   17   50 1
    37   18   19 2
    38   18   51 1
    39   19   20 1
    40   19   52 1
    41   21   22 1
    42   21   53 1
    43   21   54 1
    44   22   23 1
    45   22   24 1
    46   22   28 1
    47   24   25 1
    48   24   55 1
    49   24   56 1
    50   25   26 1
    51   25   57 1
    52   25   58 1
    53   26   27 2
    54   26   59 1
    55   27   60 1
    56   27   61 1
    57   28   62 1
    58   29   30 1
    59   30   35 ar
    60   30   31 ar
    61   31   32 ar
    62   31   63 1
    63   32   33 ar
    64   32   64 1
    65   33   34 ar
    66   33   36 1
    67   34   35 ar
    68   34   65 1
    69   35   66 1
    70   36   37 1
    71   37   67 1
    72   37   68 1
    73   37   69 1
