@<TRIPOS>MOLECULE
ZINC63557308
   51    54     0     0     0
SMALL
USER_CHARGES

@<TRIPOS>ATOM
      1 C1         -0.0907    1.4735   -0.0103 C.3       1 <0>        -0.1281
      2 C2         -0.0614   -0.0332   -0.0135 C.ar      1 <0>        -0.1133
      3 C3         -0.0595   -0.7132   -1.2391 C.ar      1 <0>         0.0595
      4 C4         -0.0341   -2.0601   -1.3258 C.ar      1 <0>        -0.2085
      5 C5         -0.0082   -2.8558   -0.1473 C.ar      1 <0>         0.3267
      6 N1          0.0179   -4.1546    0.0286 N.pl3     1 <0>        -0.5871
      7 C6          0.0359   -4.4314    1.4693 C.3       1 <0>         0.0623
      8 C7          0.0166   -3.0815    2.1511 C.2       1 <0>         0.0660
      9 C8         -0.0096   -2.1614    1.1601 C.ar      1 <0>        -0.1621
     10 C9         -0.0321   -0.6938    1.1663 C.ar      1 <0>        -0.0207
     11 C10         0.0241   -2.8156    3.6344 C.3       1 <0>        -0.1136
     12 C11        -1.4075   -2.8765    4.1707 C.3       1 <0>         0.1358
     13 N2         -1.4003   -2.6179    5.6127 N.am      1 <0>        -0.6225
     14 C12        -1.2605   -3.6571    6.6396 C.3       1 <0>         0.1153
     15 C13        -1.7383   -3.0033    7.9552 C.3       1 <0>        -0.1235
     16 H1         -2.7985   -3.1930    8.1224 H         1 <0>         0.1302
     17 C14        -1.4819   -1.5046    7.6738 C.3       1 <0>        -0.1494
     18 C15        -1.5150   -1.3979    6.1651 C.2       1 <0>         0.5261
     19 O1         -1.6309   -0.3624    5.5443 O.2       1 <0>        -0.5131
     20 C16        -0.9167   -3.4815    9.1245 C.2       1 <0>         0.5305
     21 O2         -0.0186   -4.2778    8.9495 O.2       1 <0>        -0.5061
     22 N3         -1.1798   -3.0245   10.3648 N.am      1 <0>        -0.6615
     23 C17        -0.4953   -3.5540   11.4663 C.ar      1 <0>         0.1272
     24 C18         0.0404   -4.8330   11.4030 C.ar      1 <0>        -0.0988
     25 C19         0.7150   -5.3531   12.4904 C.ar      1 <0>        -0.0761
     26 C20         0.8577   -4.6011   13.6430 C.ar      1 <0>        -0.0809
     27 C21         0.3255   -3.3259   13.7107 C.ar      1 <0>        -0.1027
     28 C22        -0.3460   -2.7974   12.6233 C.ar      1 <0>         0.0787
     29 F1         -0.8606   -1.5498   12.6869 F         1 <0>        -0.1286
     30 Br1         1.7815   -5.3180   15.1291 Br        1 <0>        -0.0256
     31 H2          0.9296    1.8568   -0.0239 H         1 <0>         0.0868
     32 H3         -0.6238    1.8284   -0.8923 H         1 <0>         0.0816
     33 H4         -0.5990    1.8251    0.8875 H         1 <0>         0.0819
     34 H5         -0.0795   -0.1359   -2.1517 H         1 <0>         0.1608
     35 H6         -0.0338   -2.5360   -2.2953 H         1 <0>         0.1615
     36 H7         -0.8448   -5.0078    1.7522 H         1 <0>         0.1726
     37 H8          0.9427   -4.9742    1.7362 H         1 <0>         0.1736
     38 H9         -0.0293   -0.1496    2.0992 H         1 <0>         0.1607
     39 H10         0.6322   -3.5687    4.1355 H         1 <0>         0.1157
     40 H11         0.4413   -1.8266    3.8241 H         1 <0>         0.1124
     41 H12        -2.0156   -2.1234    3.6696 H         1 <0>         0.0958
     42 H13        -1.8248   -3.8655    3.9810 H         1 <0>         0.0930
     43 H14        -1.8868   -4.5152    6.3957 H         1 <0>         0.0938
     44 H15        -0.2179   -3.9629    6.7273 H         1 <0>         0.0984
     45 H16        -2.2663   -0.8931    8.1196 H         1 <0>         0.1210
     46 H17        -0.5038   -1.2073    8.0520 H         1 <0>         0.1154
     47 H18        -1.8431   -2.3288   10.4947 H         1 <0>         0.4200
     48 H19        -0.0705   -5.4213   10.5041 H         1 <0>         0.1637
     49 H20         1.1313   -6.3484   12.4410 H         1 <0>         0.1467
     50 H21         0.4384   -2.7410   14.6117 H         1 <0>         0.1533
     51 H22         0.0238   -4.8213   -0.6760 H         1 <0>         0.4555
@<TRIPOS>BOND
     1    1    2 1
     2    1   31 1
     3    1   32 1
     4    1   33 1
     5    2   10 ar
     6    2    3 ar
     7    3    4 ar
     8    3   34 1
     9    4    5 ar
    10    4   35 1
    11    5    9 ar
    12    5    6 2
    13    6    7 1
    14    6   51 1
    15    7    8 1
    16    7   36 1
    17    7   37 1
    18    8    9 2
    19    8   11 1
    20    9   10 ar
    21   10   38 1
    22   11   12 1
    23   11   39 1
    24   11   40 1
    25   12   13 1
    26   12   41 1
    27   12   42 1
    28   13   18 am
    29   13   14 1
    30   14   15 1
    31   14   43 1
    32   14   44 1
    33   15   16 1
    34   15   17 1
    35   15   20 1
    36   17   18 1
    37   17   45 1
    38   17   46 1
    39   18   19 2
    40   20   21 2
    41   20   22 am
    42   22   23 1
    43   22   47 1
    44   23   28 ar
    45   23   24 ar
    46   24   25 ar
    47   24   48 1
    48   25   26 ar
    49   25   49 1
    50   26   27 ar
    51   26   30 1
    52   27   28 ar
    53   27   50 1
    54   28   29 1
