@<TRIPOS>MOLECULE
ZINC64502785
   68    72     0     0     0
SMALL
USER_CHARGES

@<TRIPOS>ATOM
      1 C1         -0.7183    0.9078   -4.6121 C.3       1 <0>        -0.1617
      2 C2         -0.5593   -0.5082   -4.1214 C.ar      1 <0>         0.0861
      3 C3         -0.9467   -1.5631   -4.9667 C.ar      1 <0>         0.0340
      4 C4         -0.8397   -2.8582   -4.6085 C.ar      1 <0>        -0.1337
      5 C5         -0.2986   -3.2025   -3.2864 C.ar      1 <0>         0.3196
      6 N1         -0.0854   -4.3373   -2.6855 N.pl3     1 <0>        -0.4636
      7 C6          0.4768   -4.0366   -1.3628 C.3       1 <0>         0.2446
      8 H1          1.4698   -4.4764   -1.2695 H         1 <0>         0.2529
      9 N2          0.5630   -2.5736   -1.2724 N.pl3     1 <0>        -0.4783
     10 C7          0.1118   -2.0859   -2.3918 C.ar      1 <0>         0.3144
     11 C8         -0.0464   -0.7132   -2.8916 C.ar      1 <0>        -0.1655
     12 C9         -0.4422   -4.5785   -0.2661 C.3       1 <0>         0.1031
     13 N3         -1.7718   -3.9788   -0.4027 N.am      1 <0>        -0.7695
     14 C10        -2.7525   -4.3103    0.4603 C.2       1 <0>         0.5800
     15 O1         -2.5336   -5.1072    1.3524 O.2       1 <0>        -0.4986
     16 C11        -4.0915   -3.7065    0.3228 C.ar      1 <0>        -0.2127
     17 C12        -4.3463   -2.7947   -0.7058 C.ar      1 <0>        -0.0555
     18 C13        -5.5964   -2.2335   -0.8318 C.ar      1 <0>        -0.1687
     19 C14        -6.6067   -2.5726    0.0640 C.ar      1 <0>         0.2886
     20 C15        -6.3560   -3.4801    1.0896 C.ar      1 <0>        -0.1830
     21 C16        -5.1097   -4.0494    1.2171 C.ar      1 <0>        -0.0011
     22 N4         -7.8687   -2.0035   -0.0657 N.pl3     1 <0>        -0.4880
     23 C17        -9.1272   -2.6272    0.3740 C.3       1 <0>         0.3424
     24 H2         -9.1296   -2.7491    1.4571 H         1 <0>         0.1152
     25 C18       -10.2448   -1.6473   -0.0574 C.3       1 <0>        -0.0901
     26 H3        -10.5522   -1.0127    0.7738 H         1 <0>         0.1136
     27 C19        -9.5144   -0.8211   -1.1508 C.3       1 <0>         0.0716
     28 H4         -9.9344    0.1818   -1.2275 H         1 <0>         0.1118
     29 N5         -8.1263   -0.7748   -0.6169 N.3       1 <0>        -0.4413
     30 C20        -9.5635   -1.5370   -2.5021 C.3       1 <0>        -0.1471
     31 C21       -11.4233   -2.3889   -0.6338 C.ar      1 <0>        -0.0854
     32 C22       -11.7763   -3.6259   -0.1276 C.ar      1 <0>        -0.1071
     33 C23       -12.8573   -4.3062   -0.6564 C.ar      1 <0>        -0.1200
     34 C24       -13.5855   -3.7493   -1.6910 C.ar      1 <0>        -0.1081
     35 C25       -13.2331   -2.5119   -2.1965 C.ar      1 <0>        -0.1189
     36 C26       -12.1547   -1.8297   -1.6649 C.ar      1 <0>        -0.1086
     37 N6         -9.3066   -3.9247   -0.2822 N.am      1 <0>        -0.7223
     38 C27        -9.0876   -5.0633    0.4049 C.2       1 <0>         0.5167
     39 O2         -8.8443   -5.0179    1.5922 O.2       1 <0>        -0.5342
     40 C28        -9.1449   -6.3929   -0.3022 C.3       1 <0>        -0.1744
     41 H5          0.1895    1.2168   -5.1304 H         1 <0>         0.1322
     42 H6         -1.5643    0.9621   -5.2972 H         1 <0>         0.1149
     43 H7         -0.8950    1.5687   -3.7635 H         1 <0>         0.1117
     44 H8         -1.3462   -1.3261   -5.9417 H         1 <0>         0.2051
     45 H9         -1.1498   -3.6377   -5.2887 H         1 <0>         0.2092
     46 H10         0.2425    0.1261   -2.2764 H         1 <0>         0.2052
     47 H11        -0.5207   -5.6616   -0.3601 H         1 <0>         0.1491
     48 H12        -0.0291   -4.3275    0.7109 H         1 <0>         0.1500
     49 H13        -1.9464   -3.3432   -1.1143 H         1 <0>         0.3855
     50 H14        -3.5627   -2.5307   -1.4006 H         1 <0>         0.1003
     51 H15        -5.7939   -1.5290   -1.6262 H         1 <0>         0.1383
     52 H16        -7.1417   -3.7409    1.7832 H         1 <0>         0.1503
     53 H17        -4.9171   -4.7569    2.0101 H         1 <0>         0.1405
     54 H18        -8.0244   -0.0421    0.0692 H         1 <0>         0.3414
     55 H19       -10.5829   -1.5160   -2.8875 H         1 <0>         0.0870
     56 H20        -8.8991   -1.0336   -3.2043 H         1 <0>         0.0661
     57 H21        -9.2436   -2.5715   -2.3770 H         1 <0>         0.0523
     58 H22       -11.2073   -4.0610    0.6807 H         1 <0>         0.1220
     59 H23       -13.1326   -5.2729   -0.2614 H         1 <0>         0.1244
     60 H24       -14.4297   -4.2811   -2.1045 H         1 <0>         0.1261
     61 H25       -13.8019   -2.0770   -3.0051 H         1 <0>         0.1271
     62 H26       -11.8816   -0.8613   -2.0574 H         1 <0>         0.1278
     63 H27        -9.5831   -3.9643   -1.2111 H         1 <0>         0.4063
     64 H28        -9.3741   -6.2344   -1.3560 H         1 <0>         0.0761
     65 H29        -8.1814   -6.8945   -0.2114 H         1 <0>         0.0969
     66 H30        -9.9205   -7.0114    0.1493 H         1 <0>         0.1023
     67 H31        -0.2652   -5.2199   -3.0455 H         1 <0>         0.4977
     68 H32         0.8953   -2.0639   -0.5169 H         1 <0>         0.4971
@<TRIPOS>BOND
     1    1    2 1
     2    1   41 1
     3    1   42 1
     4    1   43 1
     5    2   11 ar
     6    2    3 ar
     7    3    4 ar
     8    3   44 1
     9    4    5 ar
    10    4   45 1
    11    5   10 ar
    12    5    6 2
    13    6    7 1
    14    6   67 1
    15    7    8 1
    16    7    9 1
    17    7   12 1
    18    9   10 2
    19    9   68 1
    20   10   11 ar
    21   11   46 1
    22   12   13 1
    23   12   47 1
    24   12   48 1
    25   13   14 am
    26   13   49 1
    27   14   15 2
    28   14   16 1
    29   16   21 ar
    30   16   17 ar
    31   17   18 ar
    32   17   50 1
    33   18   19 ar
    34   18   51 1
    35   19   20 ar
    36   19   22 1
    37   20   21 ar
    38   20   52 1
    39   21   53 1
    40   22   29 1
    41   22   23 1
    42   23   24 1
    43   23   25 1
    44   23   37 1
    45   25   26 1
    46   25   27 1
    47   25   31 1
    48   27   28 1
    49   27   29 1
    50   27   30 1
    51   29   54 1
    52   30   55 1
    53   30   56 1
    54   30   57 1
    55   31   36 ar
    56   31   32 ar
    57   32   33 ar
    58   32   58 1
    59   33   34 ar
    60   33   59 1
    61   34   35 ar
    62   34   60 1
    63   35   36 ar
    64   35   61 1
    65   36   62 1
    66   37   38 am
    67   37   63 1
    68   38   39 2
    69   38   40 1
    70   40   64 1
    71   40   65 1
    72   40   66 1
