@<TRIPOS>MOLECULE
ZINC61640133
   30    31     0     0     0
SMALL
USER_CHARGES

@<TRIPOS>ATOM
      1 C1         -0.0184    1.5028    0.0103 C.3       1 <0>        -0.1065
      2 C2          0.0021   -0.0041    0.0020 C.ar      1 <0>        -0.1014
      3 C3          0.0057   -0.6888   -1.1980 C.ar      1 <0>        -0.0735
      4 C4          0.0244   -2.0721   -1.2062 C.ar      1 <0>        -0.0682
      5 C5          0.0395   -2.7727   -0.0128 C.ar      1 <0>        -0.0741
      6 C6          0.0359   -2.0917    1.1889 C.ar      1 <0>        -0.1931
      7 C7          0.0230   -0.7044    1.1990 C.ar      1 <0>         0.1375
      8 O1          0.0255   -0.0325    2.3806 O.3       1 <0>        -0.2946
      9 C8          0.0475   -0.8185    3.5738 C.3       1 <0>         0.1064
     10 C9          0.0471    0.0917    4.7749 C.ar      1 <0>         0.1868
     11 C10         1.2482    0.5241    5.3035 C.ar      1 <0>        -0.1275
     12 C11         1.2410    1.3630    6.4108 C.ar      1 <0>        -0.0227
     13 C12         0.0221    1.7373    6.9474 C.ar      1 <0>        -0.2163
     14 C13        -1.1482    1.2639    6.3637 C.ar      1 <0>         0.4105
     15 N1         -1.1005    0.4699    5.3052 N.ar      1 <0>        -0.5147
     16 N2         -2.3801    1.6322    6.8936 N.pl3     1 <0>        -0.8446
     17 Cl1         2.7505    0.0238    4.5917 Cl        1 <0>        -0.0518
     18 Cl2         0.0284   -2.9301   -2.7153 Cl        1 <0>        -0.0700
     19 H1          1.0042    1.8801    0.0026 H         1 <0>         0.0724
     20 H2         -0.5455    1.8639   -0.8728 H         1 <0>         0.0683
     21 H3         -0.5286    1.8543    0.9071 H         1 <0>         0.0729
     22 H4         -0.0064   -0.1437   -2.1304 H         1 <0>         0.1403
     23 H5          0.0538   -3.8525   -0.0212 H         1 <0>         0.1366
     24 H6          0.0473   -2.6389    2.1200 H         1 <0>         0.1377
     25 H7         -0.8339   -1.4592    3.6031 H         1 <0>         0.0867
     26 H8          0.9459   -1.4356    3.5859 H         1 <0>         0.0887
     27 H9          2.1661    1.7147    6.8432 H         1 <0>         0.1495
     28 H10        -0.0202    2.3881    7.8083 H         1 <0>         0.1444
     29 H11        -2.4204    2.2166    7.6668 H         1 <0>         0.4124
     30 H12        -3.1991    1.3047    6.4901 H         1 <0>         0.4080
@<TRIPOS>BOND
     1    1    2 1
     2    1   19 1
     3    1   20 1
     4    1   21 1
     5    2    7 ar
     6    2    3 ar
     7    3    4 ar
     8    3   22 1
     9    4    5 ar
    10    4   18 1
    11    5    6 ar
    12    5   23 1
    13    6    7 ar
    14    6   24 1
    15    7    8 1
    16    8    9 1
    17    9   10 1
    18    9   25 1
    19    9   26 1
    20   10   15 ar
    21   10   11 ar
    22   11   12 ar
    23   11   17 1
    24   12   13 ar
    25   12   27 1
    26   13   14 ar
    27   13   28 1
    28   14   15 ar
    29   14   16 1
    30   16   29 1
    31   16   30 1
