@<TRIPOS>MOLECULE
ZINC41001589
   65    68     0     0     0
SMALL
USER_CHARGES

@<TRIPOS>ATOM
      1 C1         -1.4136    1.2293   -0.1040 C.3       1 <0>        -0.1540
      2 C2         -1.1641   -0.2803   -0.0977 C.3       1 <0>        -0.1168
      3 C3         -0.3558   -0.6688   -1.3373 C.3       1 <0>        -0.1067
      4 C4         -0.1064   -2.1783   -1.3310 C.3       1 <0>        -0.1056
      5 S1          0.8520   -2.6389   -2.8007 S.3       1 <0>         0.0187
      6 C5          1.0535   -4.3827   -2.6489 C.2       1 <0>         0.2189
      7 N1          0.5742   -5.1379   -1.6497 N.2       1 <0>        -0.5431
      8 C6          0.9055   -6.3848   -1.8480 C.2       1 <0>         0.5061
      9 N2          1.6128   -6.4544   -3.0026 N.pl3     1 <0>        -0.3801
     10 N3          1.6936   -5.1548   -3.5006 N.2       1 <0>        -0.2609
     11 C7          2.1435   -7.6995   -3.5515 C.3       1 <0>         0.2852
     12 H1          3.1875   -7.5575   -3.8310 H         1 <0>         0.1145
     13 C8          2.0449   -8.7864   -2.5146 C.2       1 <0>        -0.2761
     14 C9          1.3307   -8.6587   -1.3854 C.2       1 <0>         0.2300
     15 N4          0.6391   -7.5125   -1.0834 N.pl3     1 <0>        -0.6076
     16 C10         1.2868   -9.8125   -0.4169 C.3       1 <0>        -0.1383
     17 C11         2.7359   -9.9976   -2.7409 C.2       1 <0>         0.5448
     18 O1          3.9261  -10.0736   -2.4983 O.2       1 <0>        -0.4890
     19 O2          2.0763  -11.0704   -3.2261 O.3       1 <0>        -0.3371
     20 C12         2.8377  -12.2623   -3.4305 C.3       1 <0>         0.0903
     21 C13         1.9402  -13.3450   -3.9720 C.2       1 <0>        -0.1610
     22 C14         2.3399  -14.0861   -4.9756 C.2       1 <0>        -0.1644
     23 C15         1.3464   -8.0921   -4.7686 C.ar      1 <0>        -0.0685
     24 C16        -0.0129   -8.3219   -4.6596 C.ar      1 <0>        -0.1197
     25 C17        -0.7470   -8.6823   -5.7742 C.ar      1 <0>        -0.0753
     26 C18        -0.1238   -8.8141   -7.0003 C.ar      1 <0>        -0.1928
     27 C19         1.2395   -8.5841   -7.1123 C.ar      1 <0>         0.1347
     28 C20         1.9730   -8.2166   -5.9932 C.ar      1 <0>        -0.1221
     29 O3          1.8548   -8.7131   -8.3171 O.3       1 <0>        -0.3084
     30 C21         1.0363   -9.0885   -9.4267 C.3       1 <0>         0.1028
     31 C22         1.8852   -9.1816  -10.6684 C.ar      1 <0>        -0.0844
     32 C23         3.2413   -8.9225  -10.5997 C.ar      1 <0>        -0.0856
     33 C24         4.0201   -9.0079  -11.7384 C.ar      1 <0>        -0.1127
     34 C25         3.4433   -9.3525  -12.9468 C.ar      1 <0>        -0.1045
     35 C26         2.0877   -9.6117  -13.0168 C.ar      1 <0>        -0.1075
     36 C27         1.3086   -9.5319  -11.8760 C.ar      1 <0>        -0.0303
     37 Cl1        -0.3933   -9.8639  -11.9617 Cl        1 <0>        -0.0659
     38 H2         -0.4589    1.7553   -0.0947 H         1 <0>         0.0559
     39 H3         -1.9700    1.5019   -1.0007 H         1 <0>         0.0558
     40 H4         -1.9894    1.5060    0.7791 H         1 <0>         0.0567
     41 H5         -0.6077   -0.5529    0.7990 H         1 <0>         0.0652
     42 H6         -2.1188   -0.8063   -0.1069 H         1 <0>         0.0651
     43 H7         -0.9122   -0.3961   -2.2340 H         1 <0>         0.0747
     44 H8          0.5988   -0.1427   -1.3281 H         1 <0>         0.0748
     45 H9          0.4501   -2.4509   -0.4343 H         1 <0>         0.0932
     46 H10        -1.0610   -2.7043   -1.3402 H         1 <0>         0.0931
     47 H11        -0.0106   -7.4910   -0.3634 H         1 <0>         0.4424
     48 H12         2.1559   -9.7691    0.2395 H         1 <0>         0.1005
     49 H13         0.3770   -9.7511    0.1803 H         1 <0>         0.0922
     50 H14         1.2957  -10.7517   -0.9700 H         1 <0>         0.0985
     51 H15         3.6385  -12.0641   -4.1429 H         1 <0>         0.0751
     52 H16         3.2668  -12.5864   -2.4824 H         1 <0>         0.0796
     53 H17         0.9674  -13.5100   -3.5327 H         1 <0>         0.1209
     54 H18         3.3126  -13.9211   -5.4149 H         1 <0>         0.1006
     55 H19         1.6967  -14.8621   -5.3637 H         1 <0>         0.1095
     56 H20        -0.5018   -8.2201   -3.7020 H         1 <0>         0.1140
     57 H21        -1.8084   -8.8612   -5.6865 H         1 <0>         0.1287
     58 H22        -0.6976   -9.0963   -7.8706 H         1 <0>         0.1312
     59 H23         3.0337   -8.0324   -6.0788 H         1 <0>         0.1338
     60 H24         0.5761  -10.0563   -9.2277 H         1 <0>         0.0821
     61 H25         0.2581   -8.3396   -9.5739 H         1 <0>         0.0820
     62 H26         3.6924   -8.6530   -9.6561 H         1 <0>         0.1418
     63 H27         5.0795   -8.8051  -11.6844 H         1 <0>         0.1328
     64 H28         4.0522   -9.4187  -13.8363 H         1 <0>         0.1348
     65 H29         1.6372   -9.8805  -13.9608 H         1 <0>         0.1374
@<TRIPOS>BOND
     1    1    2 1
     2    1   38 1
     3    1   39 1
     4    1   40 1
     5    2    3 1
     6    2   41 1
     7    2   42 1
     8    3    4 1
     9    3   43 1
    10    3   44 1
    11    4    5 1
    12    4   45 1
    13    4   46 1
    14    5    6 1
    15    6   10 2
    16    6    7 1
    17    7    8 2
    18    8   15 1
    19    8    9 1
    20    9   10 1
    21    9   11 1
    22   11   12 1
    23   11   13 1
    24   11   23 1
    25   13   14 2
    26   13   17 1
    27   14   15 1
    28   14   16 1
    29   15   47 1
    30   16   48 1
    31   16   49 1
    32   16   50 1
    33   17   18 2
    34   17   19 1
    35   19   20 1
    36   20   21 1
    37   20   51 1
    38   20   52 1
    39   21   22 2
    40   21   53 1
    41   22   54 1
    42   22   55 1
    43   23   28 ar
    44   23   24 ar
    45   24   25 ar
    46   24   56 1
    47   25   26 ar
    48   25   57 1
    49   26   27 ar
    50   26   58 1
    51   27   28 ar
    52   27   29 1
    53   28   59 1
    54   29   30 1
    55   30   31 1
    56   30   60 1
    57   30   61 1
    58   31   36 ar
    59   31   32 ar
    60   32   33 ar
    61   32   62 1
    62   33   34 ar
    63   33   63 1
    64   34   35 ar
    65   34   64 1
    66   35   36 ar
    67   35   65 1
    68   36   37 1
