@<TRIPOS>MOLECULE
ZINC63166515
   61    64     0     0     0
SMALL
USER_CHARGES

@<TRIPOS>ATOM
      1 C1         -0.0184    1.5028    0.0103 C.3       1 <0>        -0.1115
      2 C2          0.0021   -0.0041    0.0020 C.ar      1 <0>        -0.1018
      3 C3          0.0060   -0.6996   -1.1930 C.ar      1 <0>        -0.0775
      4 C4          0.0245   -2.0746   -1.2147 C.ar      1 <0>        -0.1455
      5 C5          0.0397   -2.8217   -0.0232 C.ar      1 <0>         0.1587
      6 C6          0.0353   -2.0899    1.1683 C.ar      1 <0>        -0.1333
      7 C7          0.0230   -0.7136    1.1912 C.ar      1 <0>        -0.0454
      8 S1          0.0572   -3.3096    2.4624 S.3       1 <0>        -0.1197
      9 C8          0.0724   -4.8113    1.4036 C.3       1 <0>         0.4192
     10 H1         -0.8172   -5.4185    1.5714 H         1 <0>         0.1357
     11 N1          0.0589   -4.2130    0.0618 N.pl3     1 <0>        -0.7398
     12 N2          1.2906   -5.5960    1.6191 N.am      1 <0>        -0.7254
     13 C9          1.4147   -6.3581    2.7237 C.2       1 <0>         0.5045
     14 O1          0.5178   -6.3944    3.5393 O.2       1 <0>        -0.4681
     15 C10         2.6678   -7.1653    2.9454 C.3       1 <0>         0.1658
     16 H2          2.9929   -7.5988    1.9997 H         1 <0>         0.1296
     17 C11         3.7691   -6.2565    3.4952 C.3       1 <0>        -0.1127
     18 C12         5.0557   -7.0341    3.6012 C.2       1 <0>         0.0762
     19 C13         6.0552   -7.0804    2.6912 C.ar      1 <0>        -0.1704
     20 C14         6.2364   -6.4460    1.3801 C.ar      1 <0>        -0.0147
     21 C15         7.3708   -6.6889    0.6849 C.ar      1 <0>        -0.1483
     22 C16         8.3751   -7.5298    1.1838 C.ar      1 <0>         0.0531
     23 C17         8.2809   -8.1482    2.3799 C.ar      1 <0>        -0.2075
     24 C18         7.1308   -7.9636    3.1959 C.ar      1 <0>         0.3279
     25 N3          6.8087   -8.4446    4.3721 N.pl3     1 <0>        -0.5825
     26 C19         5.4934   -7.9154    4.7497 C.3       1 <0>         0.0588
     27 N4          2.3947   -8.2374    3.9058 N.am      1 <0>        -0.7145
     28 C20         1.9768   -7.9361    5.1512 C.2       1 <0>         0.6494
     29 O2          1.8266   -6.7753    5.4775 O.2       1 <0>        -0.5246
     30 O3          1.7257   -8.9214    6.0337 O.3       1 <0>        -0.3570
     31 C21         1.2860   -8.5296    7.3357 C.3       1 <0>         0.1373
     32 C22        -0.0199   -7.7413    7.2172 C.3       1 <0>        -0.1876
     33 C23         1.0533   -9.7761    8.1920 C.3       1 <0>        -0.1433
     34 C24         2.3537   -7.6520    7.9920 C.3       1 <0>        -0.1858
     35 H3          1.0042    1.8801    0.0026 H         1 <0>         0.0720
     36 H4         -0.5455    1.8639   -0.8728 H         1 <0>         0.0703
     37 H5         -0.5286    1.8543    0.9071 H         1 <0>         0.0687
     38 H6         -0.0061   -0.1539   -2.1249 H         1 <0>         0.1312
     39 H7          0.0271   -2.5900   -2.1638 H         1 <0>         0.1243
     40 H8          0.0252   -0.1882    2.1348 H         1 <0>         0.1311
     41 H9          0.0624   -4.7656   -0.7354 H         1 <0>         0.4143
     42 H10         2.0079   -5.5670    0.9668 H         1 <0>         0.4008
     43 H11         3.9106   -5.4099    2.8234 H         1 <0>         0.1260
     44 H12         3.4817   -5.8934    4.4819 H         1 <0>         0.1439
     45 H13         5.4750   -5.7951    0.9763 H         1 <0>         0.1600
     46 H14         7.5061   -6.2231   -0.2801 H         1 <0>         0.1583
     47 H15         9.2606   -7.6897    0.5865 H         1 <0>         0.1612
     48 H16         9.0831   -8.7870    2.7190 H         1 <0>         0.1609
     49 H17         5.5708   -7.3288    5.6651 H         1 <0>         0.1744
     50 H18         4.7865   -8.7339    4.8858 H         1 <0>         0.1686
     51 H19         2.5146   -9.1640    3.6453 H         1 <0>         0.4155
     52 H20        -0.7806   -8.3665    6.7496 H         1 <0>         0.0608
     53 H21        -0.3554   -7.4425    8.2103 H         1 <0>         0.0721
     54 H22         0.1458   -6.8533    6.6072 H         1 <0>         0.0929
     55 H23         1.9837  -10.3377    8.2764 H         1 <0>         0.0651
     56 H24         0.7179   -9.4773    9.1851 H         1 <0>         0.0853
     57 H25         0.2927  -10.4013    7.7244 H         1 <0>         0.0694
     58 H26         2.5194   -6.7641    7.3820 H         1 <0>         0.0858
     59 H27         2.0182   -7.3532    8.9852 H         1 <0>         0.0763
     60 H28         3.2840   -8.2137    8.0765 H         1 <0>         0.0550
     61 H29         7.3511   -9.0466    4.9054 H         1 <0>         0.4561
@<TRIPOS>BOND
     1    1    2 1
     2    1   35 1
     3    1   36 1
     4    1   37 1
     5    2    7 ar
     6    2    3 ar
     7    3    4 ar
     8    3   38 1
     9    4    5 ar
    10    4   39 1
    11    5   11 1
    12    5    6 ar
    13    6    7 ar
    14    6    8 1
    15    7   40 1
    16    8    9 1
    17    9   10 1
    18    9   11 1
    19    9   12 1
    20   11   41 1
    21   12   13 am
    22   12   42 1
    23   13   14 2
    24   13   15 1
    25   15   16 1
    26   15   17 1
    27   15   27 1
    28   17   18 1
    29   17   43 1
    30   17   44 1
    31   18   26 1
    32   18   19 2
    33   19   24 ar
    34   19   20 ar
    35   20   21 ar
    36   20   45 1
    37   21   22 ar
    38   21   46 1
    39   22   23 ar
    40   22   47 1
    41   23   24 ar
    42   23   48 1
    43   24   25 2
    44   25   26 1
    45   25   61 1
    46   26   49 1
    47   26   50 1
    48   27   28 am
    49   27   51 1
    50   28   29 2
    51   28   30 1
    52   30   31 1
    53   31   32 1
    54   31   33 1
    55   31   34 1
    56   32   52 1
    57   32   53 1
    58   32   54 1
    59   33   55 1
    60   33   56 1
    61   33   57 1
    62   34   58 1
    63   34   59 1
    64   34   60 1
