@<TRIPOS>MOLECULE
ZINC36600644
   79    83     0     0     0
SMALL
USER_CHARGES

@<TRIPOS>ATOM
      1 C1          3.1775    1.0800    8.1046 C.3       1 <0>        -0.1533
      2 C2          3.1994   -0.4420    7.9499 C.3       1 <0>        -0.1250
      3 C3          2.7892   -0.8157    6.5241 C.3       1 <0>        -0.1194
      4 C4          2.8111   -2.3377    6.3694 C.3       1 <0>        -0.1034
      5 C5          2.4009   -2.7114    4.9436 C.3       1 <0>        -0.1416
      6 C6          2.4225   -4.2105    4.7913 C.2       1 <0>         0.5219
      7 O1          2.7352   -4.9110    5.7306 O.2       1 <0>        -0.4965
      8 N1          2.0943   -4.7727    3.6111 N.am      1 <0>        -0.5997
      9 C7          1.6066   -3.9362    2.5117 C.3       1 <0>         0.1931
     10 C8          2.7572   -3.5713    1.6095 C.2       1 <0>        -0.0470
     11 C9          3.2287   -4.3180    0.5949 C.2       1 <0>        -0.1760
     12 C10         4.3040   -3.5999    0.0231 C.2       1 <0>        -0.2121
     13 C11         4.4253   -2.4574    0.7226 C.2       1 <0>        -0.0024
     14 O2          3.4821   -2.4428    1.6785 O.3       1 <0>        -0.1699
     15 C12         5.4433   -1.3747    0.4724 C.3       1 <0>        -0.0763
     16 C13         2.2253   -6.2203    3.4278 C.3       1 <0>         0.1748
     17 H1          1.7854   -6.5068    2.4725 H         1 <0>         0.1181
     18 C14         3.6839   -6.5986    3.4428 C.ar      1 <0>        -0.0997
     19 C15         4.5647   -5.8046    4.0850 C.ar      1 <0>        -0.0630
     20 C16         5.9434   -6.1161    4.1277 C.ar      1 <0>        -0.0491
     21 C17         6.8512   -5.2843    4.7986 C.ar      1 <0>        -0.0950
     22 C18         8.1757   -5.6094    4.8242 C.ar      1 <0>        -0.1175
     23 C19         8.6419   -6.7565    4.1928 C.ar      1 <0>        -0.1080
     24 C20         7.7831   -7.5871    3.5311 C.ar      1 <0>        -0.1096
     25 C21         6.4214   -7.2818    3.4875 C.ar      1 <0>        -0.0344
     26 C22         5.4643   -8.1443    2.7891 C.ar      1 <0>        -0.0382
     27 C23         4.0985   -7.7813    2.7880 C.ar      1 <0>        -0.0260
     28 C24         3.1740   -8.6030    2.1274 C.ar      1 <0>        -0.1369
     29 C25         3.6018   -9.7380    1.5036 C.ar      1 <0>        -0.1004
     30 C26         4.9452  -10.0947    1.5123 C.ar      1 <0>        -0.1182
     31 C27         5.8720   -9.3094    2.1366 C.ar      1 <0>        -0.0941
     32 C28         1.5095   -6.9349    4.5449 C.2       1 <0>         0.5177
     33 O3          0.8707   -6.3019    5.3586 O.2       1 <0>        -0.5051
     34 N2          1.5792   -8.2775    4.6398 N.am      1 <0>        -0.7282
     35 C29         0.8833   -8.9722    5.7258 C.3       1 <0>         0.1492
     36 C30         1.7691   -8.9848    6.9733 C.3       1 <0>        -0.1275
     37 C31         1.0424   -9.7103    8.1074 C.3       1 <0>        -0.1165
     38 C32         0.7404  -11.1486    7.6819 C.3       1 <0>        -0.1223
     39 C33        -0.1453  -11.1360    6.4344 C.3       1 <0>        -0.1149
     40 C34         0.5814  -10.4105    5.3002 C.3       1 <0>        -0.1265
     41 H2          2.1717    1.4509    7.9069 H         1 <0>         0.0534
     42 H3          3.4697    1.3462    9.1204 H         1 <0>         0.0535
     43 H4          3.8753    1.5273    7.3967 H         1 <0>         0.0530
     44 H5          4.2051   -0.8128    8.1476 H         1 <0>         0.0610
     45 H6          2.5016   -0.8892    8.6578 H         1 <0>         0.0620
     46 H7          1.7834   -0.4448    6.3264 H         1 <0>         0.0623
     47 H8          3.4870   -0.3684    5.8162 H         1 <0>         0.0615
     48 H9          3.8168   -2.7085    6.5671 H         1 <0>         0.0670
     49 H10         2.1133   -2.7849    7.0773 H         1 <0>         0.0720
     50 H11         1.3951   -2.3405    4.7459 H         1 <0>         0.0945
     51 H12         3.0987   -2.2641    4.2357 H         1 <0>         0.0956
     52 H13         0.8579   -4.4861    1.9414 H         1 <0>         0.1123
     53 H14         1.1601   -3.0280    2.9166 H         1 <0>         0.1052
     54 H15         2.8575   -5.2815    0.2782 H         1 <0>         0.1439
     55 H16         4.9117   -3.9095   -0.8143 H         1 <0>         0.1460
     56 H17         5.0368   -0.6497   -0.2328 H         1 <0>         0.0824
     57 H18         5.6802   -0.8747    1.4115 H         1 <0>         0.0763
     58 H19         6.3492   -1.8166    0.0575 H         1 <0>         0.0884
     59 H20         4.2095   -4.9113    4.5771 H         1 <0>         0.1410
     60 H21         6.5032   -4.3894    5.2929 H         1 <0>         0.1254
     61 H22         8.8719   -4.9662    5.3419 H         1 <0>         0.1253
     62 H23         9.6950   -6.9936    4.2256 H         1 <0>         0.1262
     63 H24         8.1557   -8.4759    3.0435 H         1 <0>         0.1277
     64 H25         2.1271   -8.3383    2.1129 H         1 <0>         0.1245
     65 H26         2.8867  -10.3685    0.9961 H         1 <0>         0.1271
     66 H27         5.2610  -10.9981    1.0116 H         1 <0>         0.1272
     67 H28         6.9133   -9.5957    2.1376 H         1 <0>         0.1287
     68 H29         2.0901   -8.7838    3.9890 H         1 <0>         0.3978
     69 H30        -0.0503   -8.4555    5.9483 H         1 <0>         0.0871
     70 H31         2.7027   -9.5015    6.7508 H         1 <0>         0.0600
     71 H32         1.9842   -7.9602    7.2764 H         1 <0>         0.0704
     72 H33         1.6734   -9.7193    8.9962 H         1 <0>         0.0639
     73 H34         0.1088   -9.1936    8.3299 H         1 <0>         0.0636
     74 H35         1.6740  -11.6653    7.4594 H         1 <0>         0.0620
     75 H36         0.2227  -11.6655    8.4899 H         1 <0>         0.0639
     76 H37        -0.3605  -12.1607    6.1312 H         1 <0>         0.0672
     77 H38        -1.0789  -10.6194    6.6569 H         1 <0>         0.0651
     78 H39        -0.0496  -10.4016    4.4115 H         1 <0>         0.0676
     79 H40         1.5150  -10.9272    5.0777 H         1 <0>         0.0667
@<TRIPOS>BOND
     1    1    2 1
     2    1   41 1
     3    1   42 1
     4    1   43 1
     5    2    3 1
     6    2   44 1
     7    2   45 1
     8    3    4 1
     9    3   46 1
    10    3   47 1
    11    4    5 1
    12    4   48 1
    13    4   49 1
    14    5    6 1
    15    5   50 1
    16    5   51 1
    17    6    7 2
    18    6    8 am
    19    8    9 1
    20    8   16 1
    21    9   10 1
    22    9   52 1
    23    9   53 1
    24   10   14 1
    25   10   11 2
    26   11   12 1
    27   11   54 1
    28   12   13 2
    29   12   55 1
    30   13   14 1
    31   13   15 1
    32   15   56 1
    33   15   57 1
    34   15   58 1
    35   16   17 1
    36   16   18 1
    37   16   32 1
    38   18   27 ar
    39   18   19 ar
    40   19   20 ar
    41   19   59 1
    42   20   25 ar
    43   20   21 ar
    44   21   22 ar
    45   21   60 1
    46   22   23 ar
    47   22   61 1
    48   23   24 ar
    49   23   62 1
    50   24   25 ar
    51   24   63 1
    52   25   26 ar
    53   26   31 ar
    54   26   27 ar
    55   27   28 ar
    56   28   29 ar
    57   28   64 1
    58   29   30 ar
    59   29   65 1
    60   30   31 ar
    61   30   66 1
    62   31   67 1
    63   32   33 2
    64   32   34 am
    65   34   35 1
    66   34   68 1
    67   35   40 1
    68   35   36 1
    69   35   69 1
    70   36   37 1
    71   36   70 1
    72   36   71 1
    73   37   38 1
    74   37   72 1
    75   37   73 1
    76   38   39 1
    77   38   74 1
    78   38   75 1
    79   39   40 1
    80   39   76 1
    81   39   77 1
    82   40   78 1
    83   40   79 1
