@<TRIPOS>MOLECULE
ZINC35505963
   38    39     0     0     0
SMALL
USER_CHARGES

@<TRIPOS>ATOM
      1 C1          1.3851   -5.5733    6.1474 C.3       1 <0>        -0.1609
      2 C2          1.1655   -5.4197    4.6410 C.3       1 <0>         0.0518
      3 O1          1.3571   -4.0534    4.2686 O.3       1 <0>        -0.3430
      4 C3          1.1082   -3.7263    2.9731 C.ar      1 <0>         0.1570
      5 C4          0.5886   -4.6753    2.1045 C.ar      1 <0>        -0.1869
      6 C5          0.3365   -4.3409    0.7883 C.ar      1 <0>        -0.0192
      7 C6          0.6015   -3.0605    0.3359 C.ar      1 <0>        -0.1207
      8 C7          1.1199   -2.1130    1.2001 C.ar      1 <0>        -0.0178
      9 C8          1.3678   -2.4417    2.5190 C.ar      1 <0>        -0.1693
     10 C9          1.9258   -1.4070    3.4619 C.3       1 <0>         0.1398
     11 H1          2.2513   -0.5356    2.8938 H         1 <0>         0.1576
     12 C10         0.8598   -0.9963    4.4448 C.ar      1 <0>        -0.1208
     13 C11         0.8149   -1.5779    5.6982 C.ar      1 <0>        -0.0768
     14 C12        -0.1618   -1.2018    6.6006 C.ar      1 <0>        -0.1253
     15 C13        -1.0962   -0.2419    6.2494 C.ar      1 <0>         0.1396
     16 C14        -1.0509    0.3403    4.9944 C.ar      1 <0>        -0.1157
     17 C15        -0.0695   -0.0336    4.0944 C.ar      1 <0>        -0.0388
     18 Br1        -0.0024    0.7663    2.3823 Br        1 <0>        -0.0064
     19 F1         -2.0515    0.1258    7.1310 F         1 <0>        -0.1153
     20 N1          3.0700   -1.9731    4.1886 N.4       1 <0>        -0.5073
     21 C16         4.1574   -2.2595    3.2433 C.3       1 <0>        -0.0490
     22 Br2         0.2553   -2.6054   -1.4666 Br        1 <0>        -0.0147
     23 H2          0.7336   -4.8820    6.6819 H         1 <0>         0.0721
     24 H3          1.1532   -6.5956    6.4460 H         1 <0>         0.0934
     25 H4          2.4250   -5.3516    6.3874 H         1 <0>         0.0673
     26 H5          1.8782   -6.0459    4.1043 H         1 <0>         0.0778
     27 H6          0.1504   -5.7262    4.3887 H         1 <0>         0.0789
     28 H7          0.3819   -5.6750    2.4571 H         1 <0>         0.1513
     29 H8         -0.0676   -5.0794    0.1118 H         1 <0>         0.1506
     30 H9          1.3264   -1.1142    0.8449 H         1 <0>         0.1501
     31 H10         1.5432   -2.3268    5.9722 H         1 <0>         0.1384
     32 H11        -0.1966   -1.6568    7.5795 H         1 <0>         0.1563
     33 H12        -1.7794    1.0887    4.7194 H         1 <0>         0.1607
     34 H13         3.3906   -1.3112    4.8794 H         1 <0>         0.4324
     35 H14         3.8111   -2.9746    2.4971 H         1 <0>         0.1225
     36 H15         4.4614   -1.3369    2.7489 H         1 <0>         0.1282
     37 H16         5.0064   -2.6796    3.7825 H         1 <0>         0.1318
     38 H17         2.7886   -2.8272    4.6463 H         1 <0>         0.4301
@<TRIPOS>BOND
     1    1    2 1
     2    1   23 1
     3    1   24 1
     4    1   25 1
     5    2    3 1
     6    2   26 1
     7    2   27 1
     8    3    4 1
     9    4    9 ar
    10    4    5 ar
    11    5    6 ar
    12    5   28 1
    13    6    7 ar
    14    6   29 1
    15    7    8 ar
    16    7   22 1
    17    8    9 ar
    18    8   30 1
    19    9   10 1
    20   10   11 1
    21   10   12 1
    22   10   20 1
    23   12   17 ar
    24   12   13 ar
    25   13   14 ar
    26   13   31 1
    27   14   15 ar
    28   14   32 1
    29   15   16 ar
    30   15   19 1
    31   16   17 ar
    32   16   33 1
    33   17   18 1
    34   20   21 1
    35   20   34 1
    36   20   38 1
    37   21   35 1
    38   21   36 1
    39   21   37 1
