@<TRIPOS>MOLECULE
ZINC03205652
   65    68     0     0     0
SMALL
USER_CHARGES
N,N-diethyl-4,4-dimethyl-8-phenyl-2-(1-piperidyl)-9-thioxo-7,8-diaza-9$l^{5}-phosphabicyclo[4.3.0]nona-1,5-dien-9-amine
@<TRIPOS>ATOM
      1 C1         -1.6478    4.3431    1.2909 C.3       1 <0>        -0.1985
      2 C2         -2.7067    3.2511    1.4557 C.3       1 <0>         0.0297
      3 N1         -3.1597    3.2151    2.8526 N.pl3     1 <0>        -0.9035
      4 C3         -4.5540    2.7613    2.9424 C.3       1 <0>         0.0188
      5 C4         -5.1350    3.1640    4.2993 C.3       1 <0>        -0.1847
      6 P1         -2.1494    2.2486    3.7896 P.3       1 <0>         2.5453
      7 S1         -0.3545    2.5775    3.4118 S.2       1 <0>        -1.1489
      8 C5         -2.5560    0.4876    3.6068 C.2       1 <0>        -0.7495
      9 C6         -2.6277   -0.3209    2.5683 C.2       1 <0>         0.1312
     10 C7         -3.1438   -1.7233    2.8227 C.3       1 <0>        -0.0565
     11 C8         -2.7275   -2.2233    4.2013 C.3       1 <0>        -0.0069
     12 C9         -2.9966   -1.2216    5.2945 C.2       1 <0>        -0.1401
     13 C10        -2.8741    0.0910    5.0053 C.2       1 <0>         0.1530
     14 N2         -2.9188    1.1717    5.8514 N.pl3     1 <0>        -0.5620
     15 N3         -2.4730    2.4229    5.4123 N.pl3     1 <0>        -0.7438
     16 C11        -2.3287    3.5814    6.1792 C.ar      1 <0>         0.1811
     17 C12        -1.9800    4.7803    5.5705 C.ar      1 <0>        -0.1597
     18 C13        -1.8424    5.9247    6.3311 C.ar      1 <0>        -0.0648
     19 C14        -2.0420    5.8761    7.6986 C.ar      1 <0>        -0.1317
     20 C15        -2.3842    4.6831    8.3086 C.ar      1 <0>        -0.0761
     21 C16        -2.5281    3.5359    7.5532 C.ar      1 <0>        -0.1508
     22 C17        -1.2314   -2.5427    4.1835 C.3       1 <0>        -0.1538
     23 C18        -3.5007   -3.5073    4.5088 C.3       1 <0>        -0.1461
     24 C19        -0.8492    0.3924    0.9990 C.3       1 <0>         0.0004
     25 C20        -0.4237   -0.4206   -0.2277 C.3       1 <0>        -0.1217
     26 C21        -1.3906   -0.1409   -1.3805 C.3       1 <0>        -0.1459
     27 C22        -2.8030   -0.5735   -0.9804 C.3       1 <0>        -0.1235
     28 C23        -3.2554    0.2378    0.2377 C.3       1 <0>         0.0013
     29 H1         -1.2722    4.3335    0.2677 H         1 <0>         0.0869
     30 H2         -2.0918    5.3151    1.5059 H         1 <0>         0.0906
     31 H3         -0.8251    4.1586    1.9817 H         1 <0>         0.1222
     32 H4         -2.2777    2.2855    1.1878 H         1 <0>         0.0270
     33 H5         -3.5541    3.4654    0.8044 H         1 <0>         0.1315
     34 H6         -5.1381    3.2222    2.1458 H         1 <0>         0.1272
     35 H7         -4.5905    1.6768    2.8389 H         1 <0>         0.0482
     36 H8         -4.5375    2.7212    5.0962 H         1 <0>         0.0675
     37 H9         -5.1190    4.2498    4.3936 H         1 <0>         0.0917
     38 H10        -6.1624    2.8079    4.3748 H         1 <0>         0.0919
     39 H11        -4.2316   -1.7208    2.7541 H         1 <0>         0.1192
     40 H12        -2.7414   -2.3945    2.0640 H         1 <0>         0.1134
     41 H13        -3.2808   -1.5459    6.2847 H         1 <0>         0.1517
     42 H14        -3.2598    1.0676    6.7535 H         1 <0>         0.4383
     43 H15        -1.8203    4.8182    4.5030 H         1 <0>         0.1249
     44 H16        -1.5749    6.8580    5.8580 H         1 <0>         0.1421
     45 H17        -1.9301    6.7717    8.2917 H         1 <0>         0.1368
     46 H18        -2.5387    4.6483    9.3769 H         1 <0>         0.1371
     47 H19        -2.7956    2.6046    8.0301 H         1 <0>         0.1248
     48 H20        -0.9372   -2.9592    5.1469 H         1 <0>         0.0778
     49 H21        -1.0238   -3.2672    3.3960 H         1 <0>         0.0724
     50 H22        -0.6671   -1.6294    3.9949 H         1 <0>         0.0544
     51 H23        -4.5673   -3.2872    4.5540 H         1 <0>         0.0668
     52 H24        -3.3139   -4.2406    3.7242 H         1 <0>         0.0710
     53 H25        -3.1716   -3.9089    5.4672 H         1 <0>         0.0776
     54 H26        -0.2247    0.1226    1.8507 H         1 <0>         0.1500
     55 H27        -0.7398    1.4562    0.7881 H         1 <0>         0.1160
     56 H28         0.5859   -0.1339   -0.5219 H         1 <0>         0.1284
     57 H29        -0.4446   -1.4831    0.0149 H         1 <0>         0.0934
     58 H30        -1.3877    0.9255   -1.6063 H         1 <0>         0.0829
     59 H31        -1.0758   -0.6993   -2.2621 H         1 <0>         0.1049
     60 H32        -3.4868   -0.3957   -1.8104 H         1 <0>         0.1253
     61 H33        -2.8014   -1.6346   -0.7307 H         1 <0>         0.0956
     62 H34        -3.3446    1.2890   -0.0361 H         1 <0>         0.1022
     63 H35        -4.2198   -0.1324    0.5856 H         1 <0>         0.1393
     64 N4         -2.3067    0.4346    1.3990 N.4       1 <0>        -0.4073
     65 H36        -2.4618    1.4063    1.6922 H         1 <0>         0.3838
@<TRIPOS>BOND
     1    1    2 1
     2    1   29 1
     3    1   30 1
     4    1   31 1
     5    2    3 1
     6    2   32 1
     7    2   33 1
     8    3    4 1
     9    3    6 1
    10    4    5 1
    11    4   34 1
    12    4   35 1
    13    5   36 1
    14    5   37 1
    15    5   38 1
    16    6   15 1
    17    6    7 2
    18    6    8 1
    19    8   13 1
    20    8    9 2
    21    9   10 1
    22    9   64 1
    23   10   11 1
    24   10   39 1
    25   10   40 1
    26   11   12 1
    27   11   22 1
    28   11   23 1
    29   12   13 2
    30   12   41 1
    31   13   14 1
    32   14   15 1
    33   14   42 1
    34   15   16 1
    35   16   21 ar
    36   16   17 ar
    37   17   18 ar
    38   17   43 1
    39   18   19 ar
    40   18   44 1
    41   19   20 ar
    42   19   45 1
    43   20   21 ar
    44   20   46 1
    45   21   47 1
    46   22   48 1
    47   22   49 1
    48   22   50 1
    49   23   51 1
    50   23   52 1
    51   23   53 1
    52   24   25 1
    53   24   54 1
    54   24   55 1
    55   24   64 1
    56   25   26 1
    57   25   56 1
    58   25   57 1
    59   26   27 1
    60   26   58 1
    61   26   59 1
    62   27   28 1
    63   27   60 1
    64   27   61 1
    65   28   62 1
    66   28   63 1
    67   28   64 1
    68   64   65 1
