@<TRIPOS>MOLECULE
ZINC39523306
   31    32     0     0     0
SMALL
USER_CHARGES

@<TRIPOS>ATOM
      1 C1         -0.0187    1.5258    0.0104 C.3       1 <0>        -0.1137
      2 C2          1.4166    2.0556   -0.0004 C.3       1 <0>        -0.1482
      3 C3          2.1574    1.5483    1.2384 C.3       1 <0>         0.0919
      4 H1          1.6478    1.8995    2.1357 H         1 <0>         0.0855
      5 C4          2.1780    0.0184    1.2294 C.3       1 <0>        -0.1252
      6 C5          0.7422   -0.5105    1.2417 C.3       1 <0>         0.1197
      7 C6          0.0021   -0.0041    0.0020 C.3       1 <0>        -0.1498
      8 C7          0.0276   -0.0128    2.5003 C.3       1 <0>        -0.1158
      9 C8         -1.4020   -0.5606    2.5204 C.3       1 <0>        -0.1256
     10 C9         -1.3548   -2.0901    2.4660 C.3       1 <0>        -0.1093
     11 C10        -0.6008   -2.5275    1.2080 C.3       1 <0>         0.0722
     12 H2         -1.1229   -2.1587    0.3251 H         1 <0>         0.0910
     13 N1          0.7609   -1.9788    1.2362 N.3       1 <0>        -0.3247
     14 O1          1.5549   -2.4888    0.1182 O.3       1 <0>        -0.4188
     15 I1         -0.5058   -4.6863    1.1393 I         1 <0>        -0.1108
     16 F1          3.4699    2.0325    1.2278 F         1 <0>        -0.2109
     17 H3         -0.5289    1.8773    0.9072 H         1 <0>         0.0716
     18 H4         -0.5459    1.8869   -0.8726 H         1 <0>         0.0736
     19 H5          1.9266    1.7047   -0.8976 H         1 <0>         0.0760
     20 H6          1.4016    3.1454    0.0062 H         1 <0>         0.0775
     21 H7          2.6870   -0.3329    0.3318 H         1 <0>         0.0868
     22 H8          2.7060   -0.3431    2.1117 H         1 <0>         0.0841
     23 H9         -1.0205   -0.3814    0.0099 H         1 <0>         0.0700
     24 H10         0.5123   -0.3556   -0.8947 H         1 <0>         0.0760
     25 H11         0.5629   -0.3601    3.3840 H         1 <0>         0.0817
     26 H12        -0.0003    1.0769    2.4960 H         1 <0>         0.0878
     27 H13        -1.9006   -0.2439    3.4365 H         1 <0>         0.0821
     28 H14        -1.9493   -0.1821    1.6571 H         1 <0>         0.0706
     29 H15        -0.8408   -2.4700    3.3489 H         1 <0>         0.0868
     30 H16        -2.3704   -2.4848    2.4373 H         1 <0>         0.0864
     31 H17         1.5964   -3.4538    0.0733 H         1 <0>         0.3815
@<TRIPOS>BOND
     1    1    7 1
     2    1    2 1
     3    1   17 1
     4    1   18 1
     5    2    3 1
     6    2   19 1
     7    2   20 1
     8    3    4 1
     9    3    5 1
    10    3   16 1
    11    5    6 1
    12    5   21 1
    13    5   22 1
    14    6   13 1
    15    6    7 1
    16    6    8 1
    17    7   23 1
    18    7   24 1
    19    8    9 1
    20    8   25 1
    21    8   26 1
    22    9   10 1
    23    9   27 1
    24    9   28 1
    25   10   11 1
    26   10   29 1
    27   10   30 1
    28   11   12 1
    29   11   13 1
    30   11   15 1
    31   13   14 1
    32   14   31 1
