@<TRIPOS>MOLECULE
ZINC58432941
   35    38     0     0     0
SMALL
USER_CHARGES

@<TRIPOS>ATOM
      1 C1         -0.0164    1.3567    0.0095 C.ar      1 <0>        -0.1160
      2 C2          1.1685    2.0906    0.0021 C.ar      1 <0>        -0.1053
      3 C3          2.3785    1.4679   -0.0132 C.ar      1 <0>        -0.1140
      4 C4          2.4378    0.0637   -0.0214 C.ar      1 <0>        -0.0364
      5 C5          1.2328   -0.6827   -0.0134 C.ar      1 <0>        -0.0527
      6 C6          0.0021   -0.0041    0.0020 C.ar      1 <0>        -0.1021
      7 C7          1.2920   -2.0865   -0.0210 C.ar      1 <0>        -0.0964
      8 C8          2.5022   -2.7094   -0.0359 C.ar      1 <0>        -0.1157
      9 C9          3.6867   -1.9757   -0.0433 C.ar      1 <0>        -0.0951
     10 C10         3.6681   -0.6146   -0.0367 C.ar      1 <0>        -0.1137
     11 C11         4.9603    0.1606   -0.0459 C.3       1 <0>         0.2231
     12 H1          4.8331    1.0722   -0.6299 H         1 <0>         0.1167
     13 C12         5.3414    0.5186    1.3675 C.2       1 <0>         0.1148
     14 N1          5.8399   -0.2622    2.2811 N.2       1 <0>        -0.4992
     15 C13         6.1420    0.1813    3.5188 C.ar      1 <0>         0.0827
     16 C14         6.6816   -0.5123    4.6222 C.ar      1 <0>        -0.0598
     17 C15         6.9126    0.1317    5.7990 C.ar      1 <0>        -0.1086
     18 C16         6.6293    1.4814    5.9571 C.ar      1 <0>        -0.0966
     19 C17         6.1001    2.1949    4.8982 C.ar      1 <0>        -0.0639
     20 C18         5.8633    1.5541    3.7064 C.ar      1 <0>        -0.1672
     21 S1          5.2253    2.0204    2.1184 S.3       1 <0>         0.0948
     22 N2          6.0201   -0.6611   -0.6457 N.3       1 <0>        -0.8264
     23 H2         -0.9634    1.8756    0.0259 H         1 <0>         0.1258
     24 H3          1.1258    3.1698    0.0084 H         1 <0>         0.1266
     25 H4          3.2883    2.0497   -0.0195 H         1 <0>         0.1222
     26 H5         -0.9241   -0.5595    0.0082 H         1 <0>         0.1290
     27 H6          0.3820   -2.6682   -0.0147 H         1 <0>         0.1300
     28 H7          2.5450   -3.7886   -0.0417 H         1 <0>         0.1271
     29 H8          4.6338   -2.4947   -0.0548 H         1 <0>         0.1235
     30 H9          6.9130   -1.5634    4.5327 H         1 <0>         0.1328
     31 H10         7.3260   -0.4208    6.6297 H         1 <0>         0.1353
     32 H11         6.8207    1.9703    6.9009 H         1 <0>         0.1396
     33 H12         5.8751    3.2457    5.0067 H         1 <0>         0.1349
     34 H13         6.1573   -1.5126   -0.1221 H         1 <0>         0.3551
     35 H14         5.8186   -0.8605   -1.6140 H         1 <0>         0.3553
@<TRIPOS>BOND
     1    1    6 ar
     2    1    2 ar
     3    1   23 1
     4    2    3 ar
     5    2   24 1
     6    3    4 ar
     7    3   25 1
     8    4   10 ar
     9    4    5 ar
    10    5    6 ar
    11    5    7 ar
    12    6   26 1
    13    7    8 ar
    14    7   27 1
    15    8    9 ar
    16    8   28 1
    17    9   10 ar
    18    9   29 1
    19   10   11 1
    20   11   12 1
    21   11   13 1
    22   11   22 1
    23   13   21 1
    24   13   14 2
    25   14   15 1
    26   15   20 ar
    27   15   16 ar
    28   16   17 ar
    29   16   30 1
    30   17   18 ar
    31   17   31 1
    32   18   19 ar
    33   18   32 1
    34   19   20 ar
    35   19   33 1
    36   20   21 1
    37   22   34 1
    38   22   35 1
