@<TRIPOS>MOLECULE
ZINC09670140
   62    64     0     0     0
SMALL
USER_CHARGES
2-[4-(3,5-dichlorophenyl)sulfonylaminophenyl]-N-(2,2,6,6-tetramethyl-4-piperidyl)-acetamide
@<TRIPOS>ATOM
      1 C1         -2.5142    0.3778   -1.2375 C.3       1 <0>        -0.1836
      2 C2         -1.4212    1.4413   -0.9874 C.3       1 <0>         0.0656
      3 C3         -0.8359    1.8249   -2.3439 C.3       1 <0>        -0.1395
      4 C4          0.4454    2.6389   -2.1644 C.3       1 <0>         0.1392
      5 C5          1.4528    1.7859   -1.3911 C.3       1 <0>        -0.1365
      6 C6          0.8918    1.4410   -0.0119 C.3       1 <0>         0.0676
      7 C7          0.9264    2.6817    0.8855 C.3       1 <0>        -0.1761
      8 C8          1.8286    0.3887    0.6210 C.3       1 <0>        -0.1841
      9 N1          1.0011    2.9637   -3.4840 N.am      1 <0>        -0.7349
     10 C9          0.5828    4.0649   -4.1389 C.2       1 <0>         0.5195
     11 O1         -0.2527    4.7875   -3.6382 O.2       1 <0>        -0.5165
     12 C10         1.1532    4.3983   -5.4933 C.3       1 <0>        -0.1011
     13 C11         0.5237    5.6684   -6.0047 C.ar      1 <0>        -0.0818
     14 C12        -0.6288    5.6088   -6.7666 C.ar      1 <0>        -0.0801
     15 C13        -1.2116    6.7711   -7.2322 C.ar      1 <0>        -0.1488
     16 C14        -0.6323    8.0004   -6.9438 C.ar      1 <0>         0.1454
     17 C15         0.5285    8.0562   -6.1829 C.ar      1 <0>        -0.1234
     18 C16         1.1029    6.8904   -5.7158 C.ar      1 <0>        -0.0851
     19 N2         -1.2156    9.1775   -7.4182 N.pl3     1 <0>        -1.0543
     20 S1         -1.7115    9.2788   -8.9950 S.o2      1 <0>         2.6930
     21 O2         -2.5456    8.1530   -9.2315 O.2       1 <0>        -0.9369
     22 O3         -2.1576   10.6130   -9.1955 O.2       1 <0>        -0.9359
     23 C17        -0.2830    9.0683  -10.0049 C.ar      1 <0>        -0.6564
     24 C18         0.5203   10.1536  -10.3001 C.ar      1 <0>        -0.0044
     25 C19         1.6453    9.9879  -11.0884 C.ar      1 <0>        -0.0447
     26 C20         1.9599    8.7377  -11.5900 C.ar      1 <0>        -0.0440
     27 C21         1.1524    7.6529  -11.2988 C.ar      1 <0>        -0.0443
     28 C22         0.0307    7.8189  -10.5061 C.ar      1 <0>        -0.0041
     29 Cl1         1.5469    6.0835  -11.9273 Cl        1 <0>        -0.0388
     30 Cl2         2.6580   11.3498  -11.4534 Cl        1 <0>        -0.0355
     31 C23        -2.1114    2.6606   -0.3641 C.3       1 <0>        -0.1735
     32 H1         -2.9854    0.1116   -0.2914 H         1 <0>         0.0830
     33 H2         -3.2652    0.7813   -1.9166 H         1 <0>         0.1059
     34 H3         -2.0628   -0.5098   -1.6809 H         1 <0>         0.0805
     35 H4         -1.5660    2.4174   -2.9003 H         1 <0>         0.1150
     36 H5         -0.6123    0.9190   -2.9124 H         1 <0>         0.0908
     37 H6          0.2381    3.5617   -1.6305 H         1 <0>         0.1066
     38 H7          2.3854    2.3409   -1.2760 H         1 <0>         0.1172
     39 H8          1.6499    0.8661   -1.9442 H         1 <0>         0.0953
     40 H9          0.6119    2.4101    1.8932 H         1 <0>         0.0842
     41 H10         1.9407    3.0796    0.9164 H         1 <0>         0.1062
     42 H11         0.2513    3.4383    0.4857 H         1 <0>         0.0832
     43 H12         1.8354   -0.5097    0.0038 H         1 <0>         0.0816
     44 H13         2.8388    0.7931    0.6849 H         1 <0>         0.1063
     45 H14         1.4728    0.1400    1.6208 H         1 <0>         0.0839
     46 H15         1.6694    2.3858   -3.8844 H         1 <0>         0.4067
     47 H16         2.2314    4.5353   -5.4098 H         1 <0>         0.1083
     48 H17         0.9431    3.5838   -6.1866 H         1 <0>         0.1086
     49 H18        -1.0760    4.6525   -6.9945 H         1 <0>         0.1282
     50 H19        -2.1141    6.7242   -7.8235 H         1 <0>         0.1580
     51 H20         0.9812    9.0103   -5.9566 H         1 <0>         0.1319
     52 H21         2.0052    6.9331   -5.1239 H         1 <0>         0.1259
     53 H22        -1.3302    9.9356   -6.8241 H         1 <0>         0.4313
     54 H23         0.2723   11.1304   -9.9118 H         1 <0>         0.1582
     55 H24         2.8355    8.6086  -12.2090 H         1 <0>         0.1564
     56 H25        -0.5999    6.9721  -10.2787 H         1 <0>         0.1589
     57 H26        -1.3664    3.4233   -0.1374 H         1 <0>         0.0819
     58 H27        -2.8415    3.0632   -1.0662 H         1 <0>         0.1065
     59 H28        -2.6168    2.3620    0.5543 H         1 <0>         0.0818
     60 N3         -0.4593    0.8169   -0.0404 N.4       1 <0>        -0.5093
     61 H29        -0.3488   -0.1695   -0.3031 H         1 <0>         0.4291
     62 H30        -0.8577    0.8771    0.9039 H         1 <0>         0.4321
@<TRIPOS>BOND
     1    1    2 1
     2    1   32 1
     3    1   33 1
     4    1   34 1
     5    2    3 1
     6    2   31 1
     7    2   60 1
     8    3    4 1
     9    3   35 1
    10    3   36 1
    11    4    5 1
    12    4    9 1
    13    4   37 1
    14    5    6 1
    15    5   38 1
    16    5   39 1
    17    6    7 1
    18    6    8 1
    19    6   60 1
    20    7   40 1
    21    7   41 1
    22    7   42 1
    23    8   43 1
    24    8   44 1
    25    8   45 1
    26    9   10 am
    27    9   46 1
    28   10   11 2
    29   10   12 1
    30   12   13 1
    31   12   47 1
    32   12   48 1
    33   13   18 ar
    34   13   14 ar
    35   14   15 ar
    36   14   49 1
    37   15   16 ar
    38   15   50 1
    39   16   17 ar
    40   16   19 1
    41   17   18 ar
    42   17   51 1
    43   18   52 1
    44   19   20 1
    45   19   53 1
    46   20   21 2
    47   20   22 2
    48   20   23 1
    49   23   28 ar
    50   23   24 ar
    51   24   25 ar
    52   24   54 1
    53   25   26 ar
    54   25   30 1
    55   26   27 ar
    56   26   55 1
    57   27   28 ar
    58   27   29 1
    59   28   56 1
    60   31   57 1
    61   31   58 1
    62   31   59 1
    63   60   61 1
    64   60   62 1
