@<TRIPOS>MOLECULE
ZINC00714903
   48    52     0     0     0
SMALL
USER_CHARGES

@<TRIPOS>ATOM
      1 C1          0.0187    1.3849   -0.0117 C.ar      1 <0>        -0.0860
      2 C2          1.2092    2.0875   -0.0277 C.ar      1 <0>        -0.0947
      3 C3          2.4133    1.4075   -0.0461 C.ar      1 <0>        -0.0259
      4 C4          2.4256    0.0227   -0.0485 C.ar      1 <0>        -0.0288
      5 C5          1.2337   -0.6787   -0.0325 C.ar      1 <0>        -0.0987
      6 C6          0.0310    0.0027   -0.0141 C.ar      1 <0>        -0.1049
      7 C7         -1.2675   -0.7620    0.0038 C.3       1 <0>         0.1996
      8 H1         -2.0776   -0.1157   -0.3344 H         1 <0>         0.1283
      9 C8         -1.5582   -1.2496    1.4274 C.3       1 <0>        -0.1504
     10 C9         -0.3886   -2.0993    1.9372 C.3       1 <0>         0.1243
     11 H2          0.4784   -1.4615    2.1090 H         1 <0>         0.1343
     12 N1         -0.0618   -3.1106    0.9280 N.pl3     1 <0>        -0.3938
     13 C10        -0.4335   -3.0203   -0.3836 C.2       1 <0>         0.3607
     14 C11         0.0247   -4.1127   -1.0259 C.2       1 <0>        -0.2568
     15 C12         0.7076   -4.9096   -0.0792 C.2       1 <0>         0.0667
     16 N2          0.6501   -4.2983    1.0911 N.2       1 <0>        -0.2457
     17 C13         1.3697   -6.2016   -0.3504 C.2       1 <0>         0.6047
     18 O1          1.3561   -6.6678   -1.4733 O.2       1 <0>        -0.4969
     19 N3          1.9891   -6.8639    0.6467 N.am      1 <0>        -0.6552
     20 C14         2.5327   -8.1329    0.4125 C.ar      1 <0>         0.1553
     21 C15         2.4978   -9.0982    1.4101 C.ar      1 <0>        -0.1292
     22 C16         3.0338  -10.3508    1.1804 C.ar      1 <0>        -0.0798
     23 C17         3.6072  -10.6476   -0.0456 C.ar      1 <0>         0.0184
     24 C18         3.6434   -9.6816   -1.0483 C.ar      1 <0>         0.0528
     25 C19         3.1016   -8.4279   -0.8190 C.ar      1 <0>        -0.1033
     26 O2          4.2536  -10.2154   -2.1466 O.3       1 <0>        -0.3055
     27 C20         4.9545  -11.3792   -1.6698 C.3       1 <0>         0.2129
     28 O3          4.1951  -11.7871   -0.5165 O.3       1 <0>        -0.3079
     29 N4         -1.1645   -1.9350   -0.8866 N.pl3     1 <0>        -0.7231
     30 C21        -0.7864   -2.7866    3.2450 C.3       1 <0>         0.4563
     31 F1         -1.8959   -3.6089    3.0209 F         1 <0>        -0.1712
     32 F2          0.2823   -3.5615    3.7083 F         1 <0>        -0.1594
     33 F3         -1.1093   -1.8180    4.2014 F         1 <0>        -0.1709
     34 Cl1         3.9362   -0.8324   -0.0723 Cl        1 <0>        -0.0377
     35 Cl2         3.9085    2.2893   -0.0668 Cl        1 <0>        -0.0397
     36 H3         -0.9214    1.9162    0.0073 H         1 <0>         0.1455
     37 H4          1.1989    3.1675   -0.0261 H         1 <0>         0.1485
     38 H5          1.2426   -1.7586   -0.0348 H         1 <0>         0.1456
     39 H6         -1.6942   -0.3900    2.0838 H         1 <0>         0.1247
     40 H7         -2.4680   -1.8498    1.4258 H         1 <0>         0.1080
     41 H8         -0.1066   -4.3386   -2.0738 H         1 <0>         0.1667
     42 H9          2.0582   -6.4615    1.5266 H         1 <0>         0.4224
     43 H10         2.0514   -8.8696    2.3666 H         1 <0>         0.1440
     44 H11         3.0061  -11.0998    1.9580 H         1 <0>         0.1422
     45 H12         3.1250   -7.6788   -1.5966 H         1 <0>         0.1532
     46 H13         4.9531  -12.1639   -2.4264 H         1 <0>         0.1330
     47 H14         5.9747  -11.1220   -1.3852 H         1 <0>         0.0857
     48 H15        -1.5793   -1.9524   -1.7632 H         1 <0>         0.4315
@<TRIPOS>BOND
     1    1    6 ar
     2    1    2 ar
     3    1   36 1
     4    2    3 ar
     5    2   37 1
     6    3    4 ar
     7    3   35 1
     8    4    5 ar
     9    4   34 1
    10    5    6 ar
    11    5   38 1
    12    6    7 1
    13    7    8 1
    14    7   29 1
    15    7    9 1
    16    9   10 1
    17    9   39 1
    18    9   40 1
    19   10   11 1
    20   10   12 1
    21   10   30 1
    22   12   16 1
    23   12   13 1
    24   13   14 2
    25   13   29 1
    26   14   15 1
    27   14   41 1
    28   15   16 2
    29   15   17 1
    30   17   18 2
    31   17   19 am
    32   19   20 1
    33   19   42 1
    34   20   25 ar
    35   20   21 ar
    36   21   22 ar
    37   21   43 1
    38   22   23 ar
    39   22   44 1
    40   23   28 1
    41   23   24 ar
    42   24   25 ar
    43   24   26 1
    44   25   45 1
    45   26   27 1
    46   27   28 1
    47   27   46 1
    48   27   47 1
    49   29   48 1
    50   30   31 1
    51   30   32 1
    52   30   33 1
