@<TRIPOS>MOLECULE
ZINC04228005
   32    33     0     0     0
SMALL
USER_CHARGES
9-amino-4-tert-butyl-2-(trifluoromethyl)-7-thia-5-azabicyclo[4.3.0]nona-2,4,8,10-tetraene-8-carbonitrile
@<TRIPOS>ATOM
      1 C1          0.3956   -0.5164    1.3889 C.3       1 <0>        -0.1419
      2 C2          0.0021   -0.0041    0.0020 C.3       1 <0>        -0.0208
      3 C3         -1.3877   -0.5310   -0.3609 C.3       1 <0>        -0.1337
      4 C4          1.0191   -0.4947   -1.0304 C.3       1 <0>        -0.1468
      5 C5         -0.0184    1.5028    0.0103 C.ar      1 <0>         0.2024
      6 C6          1.1760    2.2080    0.0027 C.ar      1 <0>        -0.1269
      7 C7          1.1721    3.5829    0.0106 C.ar      1 <0>        -0.0796
      8 C8         -0.0694    4.2662    0.0261 C.ar      1 <0>        -0.1445
      9 C9         -0.3175    5.6995    0.0370 C.2       1 <0>         0.2730
     10 C10        -1.6228    6.1369    0.0521 C.2       1 <0>        -0.2165
     11 S1         -2.5651    4.6244    0.0521 S.3       1 <0>         0.1943
     12 C11        -1.2278    3.4563    0.0323 C.ar      1 <0>         0.1223
     13 N1         -1.1717    2.1421    0.0193 N.ar      1 <0>        -0.4164
     14 C12        -2.1072    7.4844    0.0652 C.1       1 <0>         0.2999
     15 N2         -2.4915    8.5534    0.0756 N.1       1 <0>        -0.4007
     16 N3          0.7378    6.6056    0.0319 N.pl3     1 <0>        -0.8433
     17 C13         2.4683    4.3516    0.0033 C.3       1 <0>         0.4998
     18 F1          3.5421    3.4550   -0.0114 F         1 <0>        -0.1590
     19 F2          2.5227    5.1632   -1.1349 F         1 <0>        -0.1601
     20 F3          2.5433    5.1502    1.1495 F         1 <0>        -0.1601
     21 H1         -0.3290   -0.1669    2.1244 H         1 <0>         0.0629
     22 H2          0.4104   -1.6063    1.3829 H         1 <0>         0.0739
     23 H3          1.3857   -0.1410    1.6475 H         1 <0>         0.0605
     24 H4         -1.6681   -0.1660   -1.3490 H         1 <0>         0.0599
     25 H5         -1.3729   -1.6209   -0.3669 H         1 <0>         0.0621
     26 H6         -2.1123   -0.1815    0.3746 H         1 <0>         0.0689
     27 H7          2.0092   -0.1193   -0.7718 H         1 <0>         0.0619
     28 H8          1.0339   -1.5845   -1.0364 H         1 <0>         0.0745
     29 H9          0.7388   -0.1296   -2.0185 H         1 <0>         0.0626
     30 H10         2.1147    1.6739   -0.0091 H         1 <0>         0.1636
     31 H11         1.6530    6.2842    0.0209 H         1 <0>         0.3970
     32 H12         0.5586    7.5589    0.0393 H         1 <0>         0.4109
@<TRIPOS>BOND
     1    1    2 1
     2    1   21 1
     3    1   22 1
     4    1   23 1
     5    2    3 1
     6    2    4 1
     7    2    5 1
     8    3   24 1
     9    3   25 1
    10    3   26 1
    11    4   27 1
    12    4   28 1
    13    4   29 1
    14    5   13 ar
    15    5    6 ar
    16    6    7 ar
    17    6   30 1
    18    7    8 ar
    19    7   17 1
    20    8   12 ar
    21    8    9 1
    22    9   10 2
    23    9   16 1
    24   10   11 1
    25   10   14 1
    26   11   12 1
    27   12   13 ar
    28   14   15 3
    29   16   31 1
    30   16   32 1
    31   17   18 1
    32   17   19 1
    33   17   20 1
