@<TRIPOS>MOLECULE
ZINC61119210
   27    28     0     0     0
SMALL
USER_CHARGES

@<TRIPOS>ATOM
      1 C1         -0.4025    1.4774    0.0171 C.3       1 <0>        -0.1152
      2 C2         -0.1875   -0.0141    0.0040 C.ar      1 <0>        -0.0969
      3 C3         -0.1789   -0.6997   -1.1951 C.ar      1 <0>        -0.0959
      4 C4          0.0192   -2.0739   -1.2066 C.ar      1 <0>         0.1416
      5 C5          0.2084   -2.7563   -0.0117 C.ar      1 <0>        -0.1219
      6 C6          0.1991   -2.0670    1.1848 C.ar      1 <0>        -0.1278
      7 C7          0.0069   -0.6954    1.1935 C.ar      1 <0>         0.0798
      8 F1          0.0037   -0.0222    2.3648 F         1 <0>        -0.1375
      9 N1          0.0278   -2.7706   -2.4204 N.am      1 <0>        -0.6553
     10 C8          0.5074   -2.1801   -3.5330 C.2       1 <0>         0.5935
     11 O1          1.0205   -1.0791   -3.4643 O.2       1 <0>        -0.5124
     12 C9          0.4105   -2.8670   -4.8306 C.2       1 <0>         0.0385
     13 C10         0.9002   -2.2773   -5.9690 C.2       1 <0>        -0.1533
     14 S1          0.5159   -3.5299   -7.1853 S.3       1 <0>         0.0208
     15 C11        -0.2492   -4.7006   -6.0730 C.2       1 <0>         0.3847
     16 N2         -0.1501   -4.0755   -4.9172 N.2       1 <0>        -0.5690
     17 N3         -0.7970   -5.9414   -6.3515 N.pl3     1 <0>        -0.7931
     18 H1          0.5595    1.9839   -0.0614 H         1 <0>         0.0773
     19 H2         -1.0323    1.7611   -0.8261 H         1 <0>         0.0734
     20 H3         -0.8902    1.7661    0.9482 H         1 <0>         0.0718
     21 H4         -0.3266   -0.1673   -2.1231 H         1 <0>         0.1446
     22 H5          0.3624   -3.8252   -0.0184 H         1 <0>         0.1364
     23 H6          0.3462   -2.5972    2.1141 H         1 <0>         0.1408
     24 H7         -0.3115   -3.6785   -2.4610 H         1 <0>         0.4219
     25 H8          1.3844   -1.3202   -6.0953 H         1 <0>         0.2097
     26 H9         -0.7954   -6.2792   -7.2608 H         1 <0>         0.4237
     27 H10        -1.1825   -6.4727   -5.6374 H         1 <0>         0.4196
@<TRIPOS>BOND
     1    1    2 1
     2    1   18 1
     3    1   19 1
     4    1   20 1
     5    2    7 ar
     6    2    3 ar
     7    3    4 ar
     8    3   21 1
     9    4    5 ar
    10    4    9 1
    11    5    6 ar
    12    5   22 1
    13    6    7 ar
    14    6   23 1
    15    7    8 1
    16    9   10 am
    17    9   24 1
    18   10   11 2
    19   10   12 1
    20   12   16 1
    21   12   13 2
    22   13   14 1
    23   13   25 1
    24   14   15 1
    25   15   16 2
    26   15   17 1
    27   17   26 1
    28   17   27 1
