@<TRIPOS>MOLECULE
ZINC49574119
   55    58     0     0     0
SMALL
USER_CHARGES

@<TRIPOS>ATOM
      1 C1         -0.0184    1.5028    0.0103 C.3       1 <0>        -0.1110
      2 C2          0.0021   -0.0041    0.0020 C.ar      1 <0>        -0.0936
      3 C3          0.0057   -0.6888   -1.1978 C.ar      1 <0>        -0.1142
      4 C4          0.0244   -2.0713   -1.2061 C.ar      1 <0>        -0.1083
      5 C5          0.0395   -2.7720   -0.0142 C.ar      1 <0>        -0.1142
      6 C6          0.0359   -2.0919    1.1883 C.ar      1 <0>        -0.0938
      7 C7          0.0230   -0.7047    1.1992 C.ar      1 <0>         0.0820
      8 O1          0.0255   -0.0333    2.3808 O.3       1 <0>        -0.3109
      9 C8         -1.2463    0.2703    2.9572 C.3       1 <0>         0.0645
     10 C9         -1.0461    1.0110    4.2542 C.2       1 <0>         0.5035
     11 O2          0.0788    1.2556    4.6476 O.2       1 <0>        -0.5375
     12 N1         -2.0966    1.3964    4.9671 N.2       1 <0>        -0.5825
     13 C10        -1.9193    2.0525    6.1160 C.2       1 <0>         0.3608
     14 N2         -0.7514    2.4174    6.7084 N.pl3     1 <0>        -0.6185
     15 C11        -0.7795    3.0914    7.8975 C.2       1 <0>         0.1237
     16 C12        -2.0053    3.3383    8.3884 C.2       1 <0>        -0.3256
     17 S1         -3.0879    2.6351    7.1788 S.3       1 <0>         0.3071
     18 C13        -2.3333    4.0466    9.6612 C.3       1 <0>         0.1097
     19 N3         -1.1120    4.1094   10.4860 N.4       1 <0>        -0.3860
     20 C14         0.0005    4.6216    9.6750 C.3       1 <0>        -0.0011
     21 C15         0.4503    3.5622    8.6641 C.3       1 <0>        -0.0858
     22 C16        -1.3382    5.0048   11.6284 C.3       1 <0>         0.0471
     23 C17        -2.3958    4.4163   12.5262 C.ar      1 <0>        -0.1670
     24 C18        -3.7281    4.7186   12.3150 C.ar      1 <0>        -0.0970
     25 C19        -4.6983    4.1788   13.1385 C.ar      1 <0>        -0.1127
     26 C20        -4.3363    3.3364   14.1731 C.ar      1 <0>        -0.0814
     27 C21        -3.0041    3.0335   14.3838 C.ar      1 <0>        -0.1130
     28 C22        -2.0343    3.5698   13.5576 C.ar      1 <0>        -0.0920
     29 C23         0.0523   -2.8562    2.4870 C.3       1 <0>        -0.1109
     30 H1          1.0042    1.8801    0.0026 H         1 <0>         0.0749
     31 H2         -0.5455    1.8639   -0.8728 H         1 <0>         0.0700
     32 H3         -0.5286    1.8543    0.9071 H         1 <0>         0.0614
     33 H4         -0.0064   -0.1438   -2.1301 H         1 <0>         0.1295
     34 H5          0.0269   -2.6048   -2.1451 H         1 <0>         0.1294
     35 H6          0.0538   -3.8518   -0.0233 H         1 <0>         0.1294
     36 H7         -1.8183    0.8920    2.2684 H         1 <0>         0.0932
     37 H8         -1.7893   -0.6554    3.1476 H         1 <0>         0.0931
     38 H9         -2.6797    5.0563    9.4407 H         1 <0>         0.1482
     39 H10        -3.1100    3.5000   10.1960 H         1 <0>         0.1482
     40 H11        -0.3231    5.5154    9.1416 H         1 <0>         0.1408
     41 H12         0.8358    4.8758   10.3275 H         1 <0>         0.1502
     42 H13         0.9020    2.7204    9.1889 H         1 <0>         0.1228
     43 H14         1.1721    3.9961    7.9721 H         1 <0>         0.1381
     44 H15        -0.4101    5.1211   12.1881 H         1 <0>         0.1431
     45 H16        -1.6690    5.9784   11.2670 H         1 <0>         0.1409
     46 H17        -4.0109    5.3767   11.5067 H         1 <0>         0.1323
     47 H18        -5.7391    4.4155   12.9739 H         1 <0>         0.1374
     48 H19        -5.0942    2.9153   14.8169 H         1 <0>         0.1364
     49 H20        -2.7213    2.3756   15.1922 H         1 <0>         0.1364
     50 H21        -0.9938    3.3302   13.7199 H         1 <0>         0.1316
     51 H22         1.0838   -3.0266    2.7953 H         1 <0>         0.0748
     52 H23        -0.4658   -2.2805    3.2539 H         1 <0>         0.0612
     53 H24        -0.4492   -3.8144    2.3510 H         1 <0>         0.0700
     54 H25         0.0965    2.2006    6.2902 H         1 <0>         0.4377
     55 H26        -0.8855    3.1855   10.8225 H         1 <0>         0.4278
@<TRIPOS>BOND
     1    1    2 1
     2    1   30 1
     3    1   31 1
     4    1   32 1
     5    2    7 ar
     6    2    3 ar
     7    3    4 ar
     8    3   33 1
     9    4    5 ar
    10    4   34 1
    11    5    6 ar
    12    5   35 1
    13    6    7 ar
    14    6   29 1
    15    7    8 1
    16    8    9 1
    17    9   10 1
    18    9   36 1
    19    9   37 1
    20   10   11 2
    21   10   12 1
    22   12   13 2
    23   13   17 1
    24   13   14 1
    25   14   15 1
    26   14   54 1
    27   15   21 1
    28   15   16 2
    29   16   17 1
    30   16   18 1
    31   18   19 1
    32   18   38 1
    33   18   39 1
    34   19   20 1
    35   19   22 1
    36   19   55 1
    37   20   21 1
    38   20   40 1
    39   20   41 1
    40   21   42 1
    41   21   43 1
    42   22   23 1
    43   22   44 1
    44   22   45 1
    45   23   28 ar
    46   23   24 ar
    47   24   25 ar
    48   24   46 1
    49   25   26 ar
    50   25   47 1
    51   26   27 ar
    52   26   48 1
    53   27   28 ar
    54   27   49 1
    55   28   50 1
    56   29   51 1
    57   29   52 1
    58   29   53 1
