@<TRIPOS>MOLECULE
ZINC04008560
   54    57     0     0     0
SMALL
USER_CHARGES

@<TRIPOS>ATOM
      1 C1         -0.0187    1.5258    0.0104 C.3       1 <0>        -0.1543
      2 C2          0.0021   -0.0041    0.0020 C.3       1 <0>        -0.0936
      3 C3         -1.4333   -0.5336    0.0129 C.3       1 <0>        -0.1458
      4 C4          0.7182   -0.4975   -1.2568 C.3       1 <0>         0.1572
      5 H1          1.7408   -0.1202   -1.2645 H         1 <0>         0.1149
      6 C5         -0.0107    0.0017   -2.4777 C.2       1 <0>         0.4933
      7 O1         -0.4695   -0.7901   -3.2778 O.2       1 <0>        -0.5228
      8 N1         -0.1520    1.3094   -2.6799 N.2       1 <0>        -0.6119
      9 C6         -0.7943    1.7493   -3.7558 C.2       1 <0>         0.4306
     10 N2         -1.0041    3.0441   -4.0852 N.pl3     1 <0>        -0.6979
     11 C7         -1.7254    3.3759   -5.2965 C.3       1 <0>         0.0996
     12 C8         -2.1586    2.1028   -6.0534 C.3       1 <0>        -0.1677
     13 S1         -1.4836    0.7994   -4.9522 S.3       1 <0>         0.0442
     14 N3          0.7381   -1.9623   -1.2648 N.am      1 <0>        -0.7147
     15 C9          1.7096   -2.6267   -0.6082 C.2       1 <0>         0.5274
     16 O2          2.5674   -2.0119   -0.0106 O.2       1 <0>        -0.5364
     17 C10         1.7300   -4.1336   -0.6165 C.3       1 <0>        -0.0666
     18 C11         1.8489   -4.6341   -2.0574 C.3       1 <0>        -0.1009
     19 C12         1.8697   -6.1639   -2.0658 C.3       1 <0>        -0.0837
     20 C13         3.0660   -6.6622   -1.2525 C.3       1 <0>        -0.1101
     21 C14         2.9471   -6.1617    0.1885 C.3       1 <0>        -0.0868
     22 C15         2.9263   -4.6319    0.1969 C.3       1 <0>        -0.0868
     23 C16         1.6526   -6.6927    0.8076 C.3       1 <0>        -0.1099
     24 C17         0.4563   -6.1944   -0.0057 C.3       1 <0>        -0.0837
     25 C18         0.5752   -6.6949   -1.4466 C.3       1 <0>        -0.1098
     26 C19         0.4356   -4.6646    0.0027 C.3       1 <0>        -0.1000
     27 H2          1.0039    1.9031    0.0027 H         1 <0>         0.0549
     28 H3         -0.5459    1.8868   -0.8726 H         1 <0>         0.0896
     29 H4         -0.5289    1.8773    0.9072 H         1 <0>         0.0486
     30 H5          0.5293   -0.3651    0.8851 H         1 <0>         0.0823
     31 H6         -1.9605   -0.1726   -0.8702 H         1 <0>         0.0486
     32 H7         -1.4185   -1.6235    0.0069 H         1 <0>         0.0548
     33 H8         -1.9435   -0.1821    0.9097 H         1 <0>         0.0592
     34 H9         -2.6107    3.9568   -5.0377 H         1 <0>         0.0971
     35 H10        -1.0832    3.9748   -5.9423 H         1 <0>         0.0973
     36 H11        -3.2444    2.0382   -6.1247 H         1 <0>         0.1233
     37 H12        -1.6983    2.0564   -7.0403 H         1 <0>         0.1231
     38 H13         0.0520   -2.4541   -1.7428 H         1 <0>         0.4073
     39 H14         0.9967   -4.2791   -2.6368 H         1 <0>         0.0682
     40 H15         2.7711   -4.2558   -2.4985 H         1 <0>         0.0673
     41 H16         1.9544   -6.5205   -3.0923 H         1 <0>         0.0741
     42 H17         3.0807   -7.7521   -1.2584 H         1 <0>         0.0640
     43 H18         3.9881   -6.2839   -1.6936 H         1 <0>         0.0629
     44 H19         3.7993   -6.5167    0.7679 H         1 <0>         0.0739
     45 H20         3.8485   -4.2536   -0.2442 H         1 <0>         0.0691
     46 H21         2.8416   -4.2753    1.2234 H         1 <0>         0.0694
     47 H22         1.6674   -7.7826    0.8016 H         1 <0>         0.0640
     48 H23         1.5679   -6.3361    1.8342 H         1 <0>         0.0630
     49 H24        -0.4658   -6.5727    0.4354 H         1 <0>         0.0741
     50 H25        -0.2770   -6.3399   -2.0261 H         1 <0>         0.0635
     51 H26         0.5900   -7.7848   -1.4526 H         1 <0>         0.0648
     52 H27         0.3509   -4.3080    1.0293 H         1 <0>         0.0681
     53 H28        -0.4167   -4.3096   -0.5767 H         1 <0>         0.0659
     54 H29        -0.6717    3.7508   -3.5098 H         1 <0>         0.4175
@<TRIPOS>BOND
     1    1    2 1
     2    1   27 1
     3    1   28 1
     4    1   29 1
     5    2    3 1
     6    2    4 1
     7    2   30 1
     8    3   31 1
     9    3   32 1
    10    3   33 1
    11    4    5 1
    12    4    6 1
    13    4   14 1
    14    6    7 2
    15    6    8 1
    16    8    9 2
    17    9   13 1
    18    9   10 1
    19   10   11 1
    20   10   54 1
    21   11   12 1
    22   11   34 1
    23   11   35 1
    24   12   13 1
    25   12   36 1
    26   12   37 1
    27   14   15 am
    28   14   38 1
    29   15   16 2
    30   15   17 1
    31   17   22 1
    32   17   26 1
    33   17   18 1
    34   18   19 1
    35   18   39 1
    36   18   40 1
    37   19   25 1
    38   19   20 1
    39   19   41 1
    40   20   21 1
    41   20   42 1
    42   20   43 1
    43   21   22 1
    44   21   23 1
    45   21   44 1
    46   22   45 1
    47   22   46 1
    48   23   24 1
    49   23   47 1
    50   23   48 1
    51   24   25 1
    52   24   26 1
    53   24   49 1
    54   25   50 1
    55   25   51 1
    56   26   52 1
    57   26   53 1
