@<TRIPOS>MOLECULE
ZINC12211187
   37    39     0     0     0
SMALL
USER_CHARGES
3-[(2-methylsulfanyl-5,6,7,8-tetrahydrobenzothiopheno[3,2-e]pyrimidin-4-yl)amino]propanoic acid
@<TRIPOS>ATOM
      1 C1          5.0618    7.2814   -0.8321 C.3       1 <0>        -0.1484
      2 S1          3.2772    7.5360   -0.9956 S.3       1 <0>         0.0189
      3 C2          2.7154    5.8733   -0.8399 C.ar      1 <0>         0.3567
      4 N1          1.4135    5.6371   -0.9095 N.ar      1 <0>        -0.5707
      5 C3          0.8727    4.4258   -0.8065 C.ar      1 <0>         0.5081
      6 C4          1.7861    3.3491   -0.6106 C.ar      1 <0>        -0.2652
      7 C5          1.4603    1.9388   -0.4685 C.2       1 <0>        -0.0627
      8 C6          2.4982    1.0914   -0.2904 C.2       1 <0>        -0.1692
      9 S2          3.9471    2.1174   -0.3026 S.3       1 <0>         0.0974
     10 C7          3.1631    3.6784   -0.5463 C.ar      1 <0>         0.1547
     11 N2          3.6211    4.9097   -0.6577 N.ar      1 <0>        -0.5185
     12 C8          2.4365   -0.3953   -0.1199 C.3       1 <0>        -0.0343
     13 C9          0.9864   -0.7901    0.1934 C.3       1 <0>        -0.1143
     14 C10         0.0610   -0.0882   -0.8050 C.3       1 <0>        -0.1180
     15 C11         0.0282    1.4123   -0.5147 C.3       1 <0>        -0.0777
     16 N3         -0.4931    4.2235   -0.8851 N.pl3     1 <0>        -0.6891
     17 C12        -1.3816    5.3416   -1.2121 C.3       1 <0>         0.1358
     18 C13        -2.8308    4.8516   -1.2347 C.3       1 <0>        -0.1726
     19 C14        -3.7447    6.0017   -1.5711 C.2       1 <0>         0.4665
     20 O1         -3.2842    7.1005   -1.7720 O.co2     1 <0>        -0.6321
     21 H1          5.5741    8.2405   -0.9078 H         1 <0>         0.1047
     22 H2          5.2771    6.8300    0.1364 H         1 <0>         0.0895
     23 H3          5.4088    6.6204   -1.6263 H         1 <0>         0.0896
     24 H4          3.0841   -0.6967    0.7034 H         1 <0>         0.0809
     25 H5          2.7581   -0.8831   -1.0401 H         1 <0>         0.0825
     26 H6          0.7336   -0.4793    1.2072 H         1 <0>         0.0691
     27 H7          0.8709   -1.8701    0.1024 H         1 <0>         0.0748
     28 H8         -0.9455   -0.4968   -0.7150 H         1 <0>         0.0740
     29 H9          0.4299   -0.2534   -1.8173 H         1 <0>         0.0687
     30 H10        -0.5238    1.9245   -1.3028 H         1 <0>         0.0798
     31 H11        -0.4564    1.5877    0.4458 H         1 <0>         0.0842
     32 H12        -0.8629    3.3414   -0.7238 H         1 <0>         0.4115
     33 H13        -1.2740    6.1231   -0.4599 H         1 <0>         0.0775
     34 H14        -1.1177    5.7410   -2.1913 H         1 <0>         0.0751
     35 H15        -2.9384    4.0700   -1.9869 H         1 <0>         0.0704
     36 H16        -3.0947    4.4522   -0.2555 H         1 <0>         0.0708
     37 O2         -5.0704    5.8053   -1.6474 O.co2     1 <0>        -0.7683
@<TRIPOS>BOND
     1    1    2 1
     2    1   21 1
     3    1   22 1
     4    1   23 1
     5    2    3 1
     6    3   11 ar
     7    3    4 ar
     8    4    5 ar
     9    5    6 ar
    10    5   16 1
    11    6   10 ar
    12    6    7 1
    13    7   15 1
    14    7    8 2
    15    8    9 1
    16    8   12 1
    17    9   10 1
    18   10   11 ar
    19   12   13 1
    20   12   24 1
    21   12   25 1
    22   13   14 1
    23   13   26 1
    24   13   27 1
    25   14   15 1
    26   14   28 1
    27   14   29 1
    28   15   30 1
    29   15   31 1
    30   16   17 1
    31   16   32 1
    32   17   18 1
    33   17   33 1
    34   17   34 1
    35   18   19 1
    36   18   35 1
    37   18   36 1
    38   19   20 2
    39   19   37 1
