@<TRIPOS>MOLECULE
ZINC43233933
   34    35     0     0     0
SMALL
USER_CHARGES

@<TRIPOS>ATOM
      1 C1         -0.0221    1.5016   -0.0606 C.3       1 <0>        -0.1201
      2 C2         -0.0010   -0.0053   -0.0571 C.ar      1 <0>        -0.0731
      3 C3          0.0065   -0.6992   -1.2527 C.ar      1 <0>        -0.1236
      4 C4          0.0259   -2.0814   -1.2495 C.ar      1 <0>        -0.0935
      5 C5          0.0382   -2.7697   -0.0508 C.ar      1 <0>        -0.1220
      6 C6          0.0317   -2.0758    1.1448 C.ar      1 <0>        -0.0933
      7 C7          0.0166   -0.6935    1.1416 C.ar      1 <0>        -0.1234
      8 C8          0.0584   -4.2766   -0.0474 C.3       1 <0>         0.1807
      9 N1          1.4460   -4.7464   -0.0499 N.am      1 <0>        -0.7320
     10 C9          1.7100   -6.0680   -0.0475 C.2       1 <0>         0.7084
     11 O1          0.7964   -6.8705   -0.0433 O.2       1 <0>        -0.5674
     12 N2          2.9865   -6.5003   -0.0498 N.am      1 <0>        -0.6813
     13 C10         3.2625   -7.8713    0.0470 C.ar      1 <0>         0.1564
     14 C11         2.4118   -8.7949   -0.5445 C.ar      1 <0>        -0.0747
     15 C12         2.6843  -10.1460   -0.4487 C.ar      1 <0>        -0.1111
     16 C13         3.8051  -10.5814    0.2372 C.ar      1 <0>         0.0821
     17 C14         4.6577   -9.6626    0.8297 C.ar      1 <0>         0.0544
     18 C15         4.3913   -8.3072    0.7306 C.ar      1 <0>         0.0647
     19 F1          5.2244   -7.4104    1.3022 F         1 <0>        -0.1172
     20 F2          5.7511  -10.0891    1.4988 F         1 <0>        -0.1128
     21 F3          4.0682  -11.9033    0.3299 F         1 <0>        -0.1180
     22 H1          1.0003    1.8793   -0.0682 H         1 <0>         0.0733
     23 H2         -0.5469    1.8555   -0.9480 H         1 <0>         0.0687
     24 H3         -0.5351    1.8598    0.8320 H         1 <0>         0.0686
     25 H4         -0.0031   -0.1614   -2.1892 H         1 <0>         0.1251
     26 H5          0.0310   -2.6235   -2.1836 H         1 <0>         0.1251
     27 H6          0.0410   -2.6136    2.0813 H         1 <0>         0.1249
     28 H7          0.0152   -0.1514    2.0756 H         1 <0>         0.1250
     29 H8         -0.4482   -4.6446    0.8448 H         1 <0>         0.0797
     30 H9         -0.4529   -4.6488   -0.9352 H         1 <0>         0.0801
     31 H10         2.1748   -4.1063   -0.0533 H         1 <0>         0.4016
     32 H11         3.7143   -5.8627   -0.1185 H         1 <0>         0.4142
     33 H12         1.5365   -8.4572   -1.0795 H         1 <0>         0.1704
     34 H13         2.0216  -10.8637   -0.9094 H         1 <0>         0.1602
@<TRIPOS>BOND
     1    1    2 1
     2    1   22 1
     3    1   23 1
     4    1   24 1
     5    2    7 ar
     6    2    3 ar
     7    3    4 ar
     8    3   25 1
     9    4    5 ar
    10    4   26 1
    11    5    6 ar
    12    5    8 1
    13    6    7 ar
    14    6   27 1
    15    7   28 1
    16    8    9 1
    17    8   29 1
    18    8   30 1
    19    9   10 am
    20    9   31 1
    21   10   11 2
    22   10   12 am
    23   12   13 1
    24   12   32 1
    25   13   18 ar
    26   13   14 ar
    27   14   15 ar
    28   14   33 1
    29   15   16 ar
    30   15   34 1
    31   16   17 ar
    32   16   21 1
    33   17   18 ar
    34   17   20 1
    35   18   19 1
