@<TRIPOS>MOLECULE
ZINC43261677
   68    72     0     0     0
SMALL
USER_CHARGES

@<TRIPOS>ATOM
      1 C1         -0.0188    1.5353    0.0105 C.3       1 <0>        -0.1343
      2 C2          0.0021   -0.0041    0.0020 C.3       1 <0>        -0.0731
      3 C3         -1.2632   -0.6256    0.6190 C.3       1 <0>        -0.1020
      4 H1         -2.1820   -0.0465    0.4503 H         1 <0>         0.0820
      5 C4         -1.4066   -2.1120    0.2906 C.3       1 <0>        -0.1002
      6 C5         -0.0985   -2.8789    0.4301 C.3       1 <0>        -0.1129
      7 C6          1.0051   -2.1094    1.1367 C.3       1 <0>        -0.0742
      8 H2          1.0687   -2.4873    2.1796 H         1 <0>         0.0770
      9 C7          0.7236   -0.6096    1.2074 C.3       1 <0>        -0.0943
     10 H3          1.5686   -0.0185    1.5878 H         1 <0>         0.0835
     11 C8         -0.5977   -0.3857    1.9859 C.3       1 <0>        -0.1390
     12 C9          2.3652   -2.3817    0.4871 C.3       1 <0>         0.1171
     13 N1          2.7205   -3.7911    0.6704 N.am      1 <0>        -0.6970
     14 C10         3.8832   -4.2624    0.1781 C.2       1 <0>         0.5067
     15 O1          4.6354   -3.5198   -0.4167 O.2       1 <0>        -0.5196
     16 C11         4.2487   -5.7122    0.3667 C.3       1 <0>         0.0036
     17 H4          3.4902   -6.3406   -0.1001 H         1 <0>         0.1772
     18 C12         4.3209   -6.0287    1.8652 C.3       1 <0>        -0.1242
     19 S1          4.6970   -7.7993    2.0568 S.3       1 <0>        -0.1725
     20 C13         6.1271   -8.0243    0.9536 C.3       1 <0>        -0.1178
     21 C14         5.7848   -7.4093   -0.4085 C.3       1 <0>         0.0959
     22 H5          4.8886   -7.8858   -0.8061 H         1 <0>         0.1547
     23 N2          5.5474   -5.9718   -0.2580 N.4       1 <0>        -0.4948
     24 C15         6.9327   -7.6290   -1.3599 C.ar      1 <0>        -0.2235
     25 C16         8.0447   -6.8091   -1.3003 C.ar      1 <0>        -0.0601
     26 C17         9.0984   -7.0077   -2.1706 C.ar      1 <0>        -0.1875
     27 C18         9.0404   -8.0325   -3.1067 C.ar      1 <0>         0.2721
     28 C19         7.9219   -8.8542   -3.1638 C.ar      1 <0>        -0.1914
     29 C20         6.8741   -8.6536   -2.2867 C.ar      1 <0>        -0.0253
     30 N3         10.1041   -8.2358   -3.9887 N.pl3     1 <0>        -0.6221
     31 C21        11.3440   -7.4469   -4.0322 C.3       1 <0>         0.1051
     32 C22        12.2090   -8.0155   -5.1767 C.3       1 <0>        -0.1345
     33 C23        11.1667   -8.7266   -6.0797 C.3       1 <0>        -0.1351
     34 C24        10.1723   -9.2811   -5.0260 C.3       1 <0>         0.1033
     35 C25         0.3804   -0.5447   -1.3736 C.3       1 <0>        -0.1444
     36 H6          1.0038    1.9126    0.0027 H         1 <0>         0.0588
     37 H7         -0.5460    1.8964   -0.8726 H         1 <0>         0.0612
     38 H8         -0.5290    1.8868    0.9073 H         1 <0>         0.0598
     39 H9         -2.1566   -2.5549    0.9650 H         1 <0>         0.0646
     40 H10        -1.7954   -2.2275   -0.7300 H         1 <0>         0.0682
     41 H11        -0.2976   -3.8076    0.9954 H         1 <0>         0.0581
     42 H12         0.2484   -3.1998   -0.5616 H         1 <0>         0.0642
     43 H13        -0.7177    0.6119    2.3927 H         1 <0>         0.0892
     44 H14        -0.8005   -1.1701    2.7189 H         1 <0>         0.0674
     45 H15         2.3109   -2.1562   -0.5779 H         1 <0>         0.0855
     46 H16         3.1231   -1.7523    0.9536 H         1 <0>         0.0826
     47 H17         2.1190   -4.3850    1.1461 H         1 <0>         0.4098
     48 H18         5.1075   -5.4336    2.3290 H         1 <0>         0.1196
     49 H19         3.3634   -5.8034    2.3349 H         1 <0>         0.1556
     50 H20         6.9986   -7.5229    1.3747 H         1 <0>         0.1136
     51 H21         6.3359   -9.0875    0.8348 H         1 <0>         0.1580
     52 H22         5.5693   -5.5368   -1.1682 H         1 <0>         0.4430
     53 H23         8.0890   -6.0124   -0.5725 H         1 <0>         0.1169
     54 H24         9.9664   -6.3668   -2.1238 H         1 <0>         0.1314
     55 H25         7.8734   -9.6516   -3.8906 H         1 <0>         0.1333
     56 H26         6.0061   -9.2949   -2.3277 H         1 <0>         0.1338
     57 H27        11.1107   -6.4004   -4.2286 H         1 <0>         0.0683
     58 H28        11.8754   -7.5389   -3.0850 H         1 <0>         0.0687
     59 H29        12.7059   -7.2120   -5.7204 H         1 <0>         0.0883
     60 H30        12.9368   -8.7298   -4.7918 H         1 <0>         0.0811
     61 H31        10.6784   -8.0163   -6.7468 H         1 <0>         0.0794
     62 H32        11.6273   -9.5373   -6.6443 H         1 <0>         0.0907
     63 H33        10.5462  -10.2129   -4.6016 H         1 <0>         0.0721
     64 H34         9.1910   -9.4346   -5.4750 H         1 <0>         0.0770
     65 H35         1.4300   -0.3283   -1.5730 H         1 <0>         0.0535
     66 H36         0.2209   -1.6227   -1.3968 H         1 <0>         0.0628
     67 H37        -0.2393   -0.0693   -2.1339 H         1 <0>         0.0583
     68 H38         6.2757   -5.5734    0.3155 H         1 <0>         0.4265
@<TRIPOS>BOND
     1    1    2 1
     2    1   36 1
     3    1   37 1
     4    1   38 1
     5    2    9 1
     6    2    3 1
     7    2   35 1
     8    3    4 1
     9    3   11 1
    10    3    5 1
    11    5    6 1
    12    5   39 1
    13    5   40 1
    14    6    7 1
    15    6   41 1
    16    6   42 1
    17    7    8 1
    18    7    9 1
    19    7   12 1
    20    9   10 1
    21    9   11 1
    22   11   43 1
    23   11   44 1
    24   12   13 1
    25   12   45 1
    26   12   46 1
    27   13   14 am
    28   13   47 1
    29   14   15 2
    30   14   16 1
    31   16   17 1
    32   16   23 1
    33   16   18 1
    34   18   19 1
    35   18   48 1
    36   18   49 1
    37   19   20 1
    38   20   21 1
    39   20   50 1
    40   20   51 1
    41   21   22 1
    42   21   23 1
    43   21   24 1
    44   23   52 1
    45   23   68 1
    46   24   29 ar
    47   24   25 ar
    48   25   26 ar
    49   25   53 1
    50   26   27 ar
    51   26   54 1
    52   27   28 ar
    53   27   30 1
    54   28   29 ar
    55   28   55 1
    56   29   56 1
    57   30   34 1
    58   30   31 1
    59   31   32 1
    60   31   57 1
    61   31   58 1
    62   32   33 1
    63   32   59 1
    64   32   60 1
    65   33   34 1
    66   33   61 1
    67   33   62 1
    68   34   63 1
    69   34   64 1
    70   35   65 1
    71   35   66 1
    72   35   67 1
