@<TRIPOS>MOLECULE
ZINC19773573
   58    62     0     0     0
SMALL
USER_CHARGES
(7R)-3-[2-(3-fluorophenyl)ethyl]-7-[2-(4-pyridyl)ethylamino]-5,6,7,8-tetrahydrobenzothiopheno[3,2-e]pyrimidin-4-one
@<TRIPOS>ATOM
      1 C1          0.2442   -0.5499   -4.1765 C.ar      1 <0>        -0.0851
      2 C2         -0.4018   -0.1030   -3.0386 C.ar      1 <0>        -0.1244
      3 C3         -0.0473    1.1067   -2.4714 C.ar      1 <0>        -0.0620
      4 C4          0.9499    1.8733   -3.0442 C.ar      1 <0>        -0.1469
      5 C5          1.6010    1.4244   -4.1805 C.ar      1 <0>         0.1035
      6 C6          1.2450    0.2123   -4.7478 C.ar      1 <0>        -0.1501
      7 F1          2.5794    2.1705   -4.7383 F         1 <0>        -0.1362
      8 C7         -0.7527    1.5927   -1.2315 C.3       1 <0>        -0.0938
      9 C8         -0.0127    1.0858    0.0080 C.3       1 <0>         0.0889
     10 N1         -0.6984    1.5583    1.2133 N.am      1 <0>        -0.5273
     11 C9         -1.6800    0.7970    1.7617 C.2       1 <0>         0.4074
     12 N2         -2.3151    1.1832    2.8359 N.2       1 <0>        -0.4966
     13 C10        -2.0189    2.3374    3.4270 C.2       1 <0>         0.1256
     14 C11        -1.0200    3.1915    2.9338 C.2       1 <0>        -0.2616
     15 C12        -0.3388    2.7356    1.7577 C.2       1 <0>         0.5531
     16 O1          0.5480    3.4050    1.2565 O.2       1 <0>        -0.5158
     17 C13        -0.8046    4.4265    3.6865 C.2       1 <0>        -0.0288
     18 C14        -1.5800    4.6241    4.7735 C.2       1 <0>        -0.2147
     19 S1         -2.6273    3.1963    4.8561 S.3       1 <0>         0.1832
     20 C15        -1.5554    5.7975    5.7046 C.3       1 <0>        -0.0437
     21 C16        -0.2596    6.5838    5.4590 C.3       1 <0>         0.0416
     22 H1          0.6092    6.0610    5.8855 H         1 <0>         0.1408
     23 C17        -0.0886    6.7908    3.9512 C.3       1 <0>        -0.1394
     24 C18         0.2434    5.4583    3.2785 C.3       1 <0>        -0.0608
     25 N3         -0.3404    7.8885    6.1294 N.4       1 <0>        -0.5396
     26 C19         0.0836    7.7867    7.5322 C.3       1 <0>        -0.0036
     27 C20        -0.0140    9.1620    8.1955 C.3       1 <0>        -0.1029
     28 C21         0.4209    9.0576    9.6346 C.ar      1 <0>        -0.0603
     29 C22        -0.4975    8.7791   10.6352 C.ar      1 <0>        -0.1660
     30 C23        -0.0611    8.6868   11.9433 C.ar      1 <0>         0.1100
     31 N4          1.2096    8.8696   12.2449 N.ar      1 <0>        -0.4738
     32 C24         2.1098    9.1405   11.3201 C.ar      1 <0>         0.1100
     33 C25         1.7481    9.2435    9.9902 C.ar      1 <0>        -0.1662
     34 H2         -0.0339   -1.4950   -4.6190 H         1 <0>         0.1376
     35 H3         -1.1842   -0.6993   -2.5929 H         1 <0>         0.1321
     36 H4          1.2239    2.8204   -2.6032 H         1 <0>         0.1356
     37 H5          1.7492   -0.1368   -5.6368 H         1 <0>         0.1388
     38 H6         -0.7676    2.6926   -1.2254 H         1 <0>         0.0849
     39 H7         -1.7847    1.2120   -1.2237 H         1 <0>         0.0869
     40 H8          0.0021   -0.0141    0.0019 H         1 <0>         0.1088
     41 H9          1.0193    1.4665    0.0002 H         1 <0>         0.1117
     42 H10        -1.9401   -0.1449    1.3017 H         1 <0>         0.2231
     43 H11        -2.4275    6.4388    5.5094 H         1 <0>         0.1065
     44 H12        -1.5879    5.4410    6.7447 H         1 <0>         0.1058
     45 H13        -1.0224    7.1889    3.5275 H         1 <0>         0.0953
     46 H14         0.7295    7.5033    3.7693 H         1 <0>         0.0968
     47 H15         1.2386    5.1167    3.5993 H         1 <0>         0.0931
     48 H16         0.2322    5.5798    2.1853 H         1 <0>         0.1094
     49 H17         0.3145    8.6066    5.6142 H         1 <0>         0.4522
     50 H18        -0.5689    7.0770    8.0619 H         1 <0>         0.1315
     51 H19         1.1237    7.4314    7.5760 H         1 <0>         0.1320
     52 H20         0.6385    9.8717    7.6658 H         1 <0>         0.1015
     53 H21        -1.0541    9.5173    8.1516 H         1 <0>         0.1016
     54 H22        -1.5403    8.6329   10.3951 H         1 <0>         0.1384
     55 H23        -0.7695    8.4662   12.7280 H         1 <0>         0.1628
     56 H24         3.1415    9.2839   11.6053 H         1 <0>         0.1627
     57 H25         2.4900    9.4656    9.2374 H         1 <0>         0.1382
     58 H26        -1.3781    8.2522    6.1001 H         1 <0>         0.4479
@<TRIPOS>BOND
     1    1    6 ar
     2    1    2 ar
     3    1   34 1
     4    2    3 ar
     5    2   35 1
     6    3    4 ar
     7    3    8 1
     8    4    5 ar
     9    4   36 1
    10    5    6 ar
    11    5    7 1
    12    6   37 1
    13    8    9 1
    14    8   38 1
    15    8   39 1
    16    9   10 1
    17    9   40 1
    18    9   41 1
    19   10   15 am
    20   10   11 1
    21   11   12 2
    22   11   42 1
    23   12   13 1
    24   13   19 1
    25   13   14 2
    26   14   15 1
    27   14   17 1
    28   15   16 2
    29   17   24 1
    30   17   18 2
    31   18   19 1
    32   18   20 1
    33   20   21 1
    34   20   43 1
    35   20   44 1
    36   21   22 1
    37   21   23 1
    38   21   25 1
    39   23   24 1
    40   23   45 1
    41   23   46 1
    42   24   47 1
    43   24   48 1
    44   25   26 1
    45   25   49 1
    46   25   58 1
    47   26   27 1
    48   26   50 1
    49   26   51 1
    50   27   28 1
    51   27   52 1
    52   27   53 1
    53   28   33 ar
    54   28   29 ar
    55   29   30 ar
    56   29   54 1
    57   30   31 ar
    58   30   55 1
    59   31   32 ar
    60   32   33 ar
    61   32   56 1
    62   33   57 1
