@<TRIPOS>MOLECULE
ZINC40466905
   35    37     0     0     0
SMALL
USER_CHARGES

@<TRIPOS>ATOM
      1 C1          0.3453    3.8705   -0.9615 C.3       1 <0>        -0.1109
      2 C2         -0.5710    2.9128   -1.6785 C.ar      1 <0>        -0.0504
      3 C3         -1.9456    3.0128   -1.5547 C.ar      1 <0>        -0.2277
      4 C4         -2.7339    2.0943   -2.2460 C.ar      1 <0>         0.3685
      5 N1         -2.1624    1.1629   -2.9924 N.ar      1 <0>        -0.3512
      6 N2         -0.8880    1.0665   -3.1100 N.ar      1 <0>        -0.1775
      7 C5         -0.0584    1.8986   -2.4945 C.ar      1 <0>        -0.0735
      8 C6          1.4069    1.7511   -2.6664 C.ar      1 <0>         0.0415
      9 C7          2.2528    1.8485   -1.5622 C.ar      1 <0>        -0.0956
     10 C8          3.6145    1.7106   -1.7242 C.ar      1 <0>        -0.1380
     11 C9          4.1450    1.4749   -2.9876 C.ar      1 <0>         0.0830
     12 C10         3.3034    1.3778   -4.0902 C.ar      1 <0>        -0.1198
     13 C11         1.9406    1.5089   -3.9318 C.ar      1 <0>        -0.0767
     14 N3          5.5245    1.3360   -3.1495 N.pl3     1 <0>        -0.6205
     15 C12         6.2872    0.7448   -2.1458 C.ar      1 <0>         0.3066
     16 C13         7.6440    1.0387   -2.0110 C.ar      1 <0>        -0.1995
     17 C14         8.3641    0.4319   -1.0036 C.ar      1 <0>         0.1599
     18 N4          7.7853   -0.4166   -0.1746 N.ar      1 <0>        -0.4923
     19 C15         6.5044   -0.7210   -0.2695 C.ar      1 <0>         0.1551
     20 C16         5.7130   -0.1523   -1.2452 C.ar      1 <0>        -0.1901
     21 O1         -4.0863    2.1548   -2.1532 O.3       1 <0>        -0.6807
     22 H1          0.5309    3.5078    0.0495 H         1 <0>         0.0678
     23 H2          1.2898    3.9424   -1.5008 H         1 <0>         0.0654
     24 H3         -0.1220    4.8542   -0.9146 H         1 <0>         0.0657
     25 H4         -2.3942    3.7796   -0.9405 H         1 <0>         0.1232
     26 H5          1.8412    2.0323   -0.5807 H         1 <0>         0.1358
     27 H6          4.2700    1.7860   -0.8692 H         1 <0>         0.1212
     28 H7          3.7176    1.1954   -5.0708 H         1 <0>         0.1298
     29 H8          1.2868    1.4287   -4.7877 H         1 <0>         0.1395
     30 H9          5.9518    1.6513   -3.9612 H         1 <0>         0.4268
     31 H10         8.1240    1.7315   -2.6863 H         1 <0>         0.1777
     32 H11         9.4152    0.6535   -0.8917 H         1 <0>         0.2032
     33 H12         6.0697   -1.4209    0.4287 H         1 <0>         0.2047
     34 H13         4.6645   -0.4020   -1.3142 H         1 <0>         0.1833
     35 H14         8.3167   -0.8287    0.5244 H         1 <0>         0.4457
@<TRIPOS>BOND
     1    1   22 1
     2    1   23 1
     3    1   24 1
     4    1    2 1
     5    2    3 ar
     6    2    7 ar
     7    3    4 ar
     8    3   25 1
     9    4   21 1
    10    4    5 ar
    11    5    6 ar
    12    6    7 ar
    13    7    8 1
    14    8   13 ar
    15    8    9 ar
    16    9   10 ar
    17    9   26 1
    18   10   11 ar
    19   10   27 1
    20   11   12 ar
    21   11   14 1
    22   12   13 ar
    23   12   28 1
    24   13   29 1
    25   14   15 1
    26   14   30 1
    27   15   20 ar
    28   15   16 ar
    29   16   17 ar
    30   16   31 1
    31   17   18 ar
    32   17   32 1
    33   18   19 ar
    34   18   35 1
    35   19   20 ar
    36   19   33 1
    37   20   34 1
