@<TRIPOS>MOLECULE
ZINC12572280
   68    72     0     0     0
SMALL
USER_CHARGES
N-(2-adamantylmethyl)-6-[(cyclopropylmethyl-propyl-amino)methyl]-2-oxo-1H-pyridine-3-carboxamide
@<TRIPOS>ATOM
      1 C1         -1.2121   -2.3165   -4.8106 C.3       1 <0>        -0.1560
      2 C2         -0.8965   -2.0675   -3.3343 C.3       1 <0>        -0.1456
      3 C3          0.5506   -1.5903   -3.1955 C.3       1 <0>        -0.0147
      4 C4         -0.1157   -0.2574   -1.2871 C.3       1 <0>         0.0296
      5 C5          0.1130    1.0465   -2.0072 C.2       1 <0>         0.0983
      6 C6         -0.8603    1.5417   -2.8137 C.2       1 <0>        -0.1598
      7 C7         -0.6674    2.7499   -3.4832 C.2       1 <0>         0.0412
      8 C8          0.5389    3.4275   -3.3182 C.2       1 <0>        -0.2206
      9 C9          1.5280    2.8667   -2.4693 C.2       1 <0>         0.5364
     10 O1          2.5918    3.4396   -2.3085 O.2       1 <0>        -0.5140
     11 N1          1.2879    1.6996   -1.8422 N.am      1 <0>        -0.6049
     12 H1          1.9675    1.3203   -1.2631 H         1 <0>         0.4152
     13 C10         0.7829    4.7012   -4.0120 C.2       1 <0>         0.5629
     14 O2         -0.1150    5.2368   -4.6339 O.2       1 <0>        -0.5337
     15 N2          2.0013    5.2749   -3.9589 N.am      1 <0>        -0.7080
     16 C11         2.2149    6.5971   -4.5526 C.3       1 <0>         0.1158
     17 C12         3.6736    7.0147   -4.3561 C.3       1 <0>        -0.0855
     18 C13         3.9570    7.1909   -2.8629 C.3       1 <0>        -0.0796
     19 C14         5.4157    7.6086   -2.6665 C.3       1 <0>        -0.1075
     20 C15         5.6700    8.9307   -3.3933 C.3       1 <0>        -0.0875
     21 C16         4.7489   10.0113   -2.8234 C.3       1 <0>        -0.1090
     22 C17         3.2902    9.5936   -3.0199 C.3       1 <0>        -0.0867
     23 C18         3.0359    8.2715   -2.2930 C.3       1 <0>        -0.1098
     24 C19         3.0068    9.4175   -4.5130 C.3       1 <0>        -0.1133
     25 C20         3.9279    8.3369   -5.0829 C.3       1 <0>        -0.0768
     26 C21         5.3866    8.7545   -4.8865 C.3       1 <0>        -0.1077
     27 C22         0.7982   -2.4749   -0.9553 C.3       1 <0>         0.0267
     28 C23         1.8969   -3.4364   -1.4129 C.3       1 <0>        -0.2146
     29 C24         1.4597   -4.7678   -2.0271 C.3       1 <0>        -0.1666
     30 C25         2.0713   -4.7363   -0.6249 C.3       1 <0>        -0.1464
     31 H2         -2.2430   -2.6565   -4.9094 H         1 <0>         0.0793
     32 H3         -1.0792   -1.3914   -5.3715 H         1 <0>         0.0681
     33 H4         -0.5389   -3.0789   -5.2024 H         1 <0>         0.0680
     34 H5         -1.0294   -2.9926   -2.7733 H         1 <0>         0.0876
     35 H6         -1.5697   -1.3051   -2.9424 H         1 <0>         0.0847
     36 H7          0.7007   -0.7022   -3.8094 H         1 <0>         0.1271
     37 H8          1.2265   -2.3790   -3.5260 H         1 <0>         0.1374
     38 H9          0.0411   -0.1144   -0.2180 H         1 <0>         0.1540
     39 H10        -1.1372   -0.5951   -1.4626 H         1 <0>         0.1674
     40 H11        -1.7876    1.0012   -2.9337 H         1 <0>         0.1670
     41 H12        -1.4392    3.1519   -4.1228 H         1 <0>         0.1669
     42 H13         2.7368    4.8123   -3.5276 H         1 <0>         0.4136
     43 H14         1.9886    6.5578   -5.6181 H         1 <0>         0.0702
     44 H15         1.5609    7.3225   -4.0687 H         1 <0>         0.0784
     45 H16         4.3298    6.2449   -4.7621 H         1 <0>         0.0750
     46 H17         3.7759    6.2490   -2.3451 H         1 <0>         0.0692
     47 H18         5.6176    7.7341   -1.6027 H         1 <0>         0.0627
     48 H19         6.0719    6.8387   -3.0725 H         1 <0>         0.0607
     49 H20         6.7092    9.2283   -3.2533 H         1 <0>         0.0704
     50 H21         4.9300   10.9532   -3.3412 H         1 <0>         0.0633
     51 H22         4.9508   10.1368   -1.7596 H         1 <0>         0.0615
     52 H23         2.6340   10.3635   -2.6139 H         1 <0>         0.0702
     53 H24         3.2378    8.3970   -1.2293 H         1 <0>         0.0616
     54 H25         1.9967    7.9740   -2.4330 H         1 <0>         0.0615
     55 H26         3.1879   10.3594   -5.0308 H         1 <0>         0.0662
     56 H27         1.9676    9.1199   -4.6530 H         1 <0>         0.0644
     57 H28         3.7260    8.2114   -6.1467 H         1 <0>         0.0734
     58 H29         6.0428    7.9847   -5.2925 H         1 <0>         0.0620
     59 H30         5.5677    9.6964   -5.4043 H         1 <0>         0.0663
     60 H31         0.9655   -2.2014    0.0865 H         1 <0>         0.1350
     61 H32        -0.1729   -2.9604   -1.0520 H         1 <0>         0.1374
     62 H33         2.7948   -2.9671   -1.8147 H         1 <0>         0.1246
     63 H34         0.3894   -4.9587   -2.1051 H         1 <0>         0.1068
     64 H35         2.0701   -5.1746   -2.8333 H         1 <0>         0.1107
     65 H36         3.0840   -5.1223   -0.5088 H         1 <0>         0.1132
     66 H37         1.4036   -4.9063    0.2197 H         1 <0>         0.1088
     67 N3          0.8530   -1.2551   -1.7881 N.4       1 <0>        -0.3970
     68 H38         1.7983   -0.8577   -1.7357 H         1 <0>         0.4248
@<TRIPOS>BOND
     1    1    2 1
     2    1   31 1
     3    1   32 1
     4    1   33 1
     5    2    3 1
     6    2   34 1
     7    2   35 1
     8    3   36 1
     9    3   37 1
    10    3   67 1
    11    4    5 1
    12    4   38 1
    13    4   39 1
    14    4   67 1
    15    5   11 1
    16    5    6 2
    17    6    7 1
    18    6   40 1
    19    7    8 2
    20    7   41 1
    21    8    9 1
    22    8   13 1
    23    9   10 2
    24    9   11 am
    25   11   12 1
    26   13   14 2
    27   13   15 am
    28   15   16 1
    29   15   42 1
    30   16   17 1
    31   16   43 1
    32   16   44 1
    33   17   25 1
    34   17   18 1
    35   17   45 1
    36   18   23 1
    37   18   19 1
    38   18   46 1
    39   19   20 1
    40   19   47 1
    41   19   48 1
    42   20   26 1
    43   20   21 1
    44   20   49 1
    45   21   22 1
    46   21   50 1
    47   21   51 1
    48   22   23 1
    49   22   24 1
    50   22   52 1
    51   23   53 1
    52   23   54 1
    53   24   25 1
    54   24   55 1
    55   24   56 1
    56   25   26 1
    57   25   57 1
    58   26   58 1
    59   26   59 1
    60   27   28 1
    61   27   60 1
    62   27   61 1
    63   27   67 1
    64   28   30 1
    65   28   29 1
    66   28   62 1
    67   29   30 1
    68   29   63 1
    69   29   64 1
    70   30   65 1
    71   30   66 1
    72   67   68 1
