@<TRIPOS>MOLECULE
ZINC43683141
   31    33     0     0     0
SMALL
USER_CHARGES

@<TRIPOS>ATOM
      1 C1         -0.0165    1.3664    0.0096 C.ar      1 <0>        -0.1088
      2 C2          1.1563    2.1072    0.0023 C.ar      1 <0>        -0.0911
      3 C3          2.3728    1.4491   -0.0128 C.ar      1 <0>        -0.0676
      4 C4          2.4010    0.0773   -0.0205 C.ar      1 <0>        -0.1337
      5 C5          1.2272   -0.7099   -0.0135 C.ar      1 <0>         0.0830
      6 C6          0.0021   -0.0041    0.0020 C.ar      1 <0>        -0.0587
      7 N1          1.4189   -2.0472   -0.0226 N.2       1 <0>        -0.4792
      8 C7          2.6169   -2.5879   -0.0369 C.2       1 <0>         0.1213
      9 S1          3.6825   -1.1532   -0.0394 S.3       1 <0>        -0.0142
     10 S2          3.0595   -4.2934   -0.0498 S.3       1 <0>         0.0679
     11 C8          4.8734   -4.2759   -0.0674 C.3       1 <0>        -0.0419
     12 C9          5.3893   -5.6917   -0.0795 C.2       1 <0>        -0.1554
     13 C10         5.6765   -6.4865   -1.1429 C.2       1 <0>        -0.1175
     14 C11         6.1426   -7.7627   -0.9207 C.2       1 <0>        -0.1327
     15 C12         6.3015   -8.1896    0.3733 C.2       1 <0>        -0.0389
     16 S3          5.7874   -6.7526    1.2999 S.3       1 <0>         0.1211
     17 C13         6.7646   -9.4560    0.8554 C.1       1 <0>        -0.0922
     18 C14         7.1443  -10.4943    1.2506 C.1       1 <0>        -0.1185
     19 C15         7.6203  -11.7960    1.7461 C.3       1 <0>         0.1898
     20 O1          7.6218  -11.7902    3.1751 O.3       1 <0>        -0.5663
     21 H1         -0.9658    1.8812    0.0260 H         1 <0>         0.1378
     22 H2          1.1200    3.1866    0.0081 H         1 <0>         0.1419
     23 H3          3.2948    2.0116   -0.0190 H         1 <0>         0.1356
     24 H4         -0.9293   -0.5508    0.0084 H         1 <0>         0.1360
     25 H5          5.2231   -3.7540   -0.9581 H         1 <0>         0.1222
     26 H6          5.2404   -3.7630    0.8217 H         1 <0>         0.1144
     27 H7          5.5406   -6.1219   -2.1504 H         1 <0>         0.1466
     28 H8          6.3781   -8.4150   -1.7486 H         1 <0>         0.1450
     29 H9          6.9599  -12.5852    1.3867 H         1 <0>         0.0807
     30 H10         8.6321  -11.9753    1.3825 H         1 <0>         0.0805
     31 H11         7.9249  -12.6185    3.5715 H         1 <0>         0.3927
@<TRIPOS>BOND
     1    1    6 ar
     2    1    2 ar
     3    1   21 1
     4    2    3 ar
     5    2   22 1
     6    3    4 ar
     7    3   23 1
     8    4    9 1
     9    4    5 ar
    10    5    6 ar
    11    5    7 1
    12    6   24 1
    13    7    8 2
    14    8    9 1
    15    8   10 1
    16   10   11 1
    17   11   12 1
    18   11   25 1
    19   11   26 1
    20   12   16 1
    21   12   13 2
    22   13   14 1
    23   13   27 1
    24   14   15 2
    25   14   28 1
    26   15   16 1
    27   15   17 1
    28   17   18 3
    29   18   19 1
    30   19   20 1
    31   19   29 1
    32   19   30 1
    33   20   31 1
