@<TRIPOS>MOLECULE
ZINC67400514
   52    54     0     0     0
SMALL
USER_CHARGES

@<TRIPOS>ATOM
      1 C1          0.2463    1.5426   -0.0254 C.3       1 <0>        -0.1832
      2 C2          0.0400    0.0271    0.0136 C.3       1 <0>         0.0069
      3 H1          0.4178   -0.3669    0.9570 H         1 <0>         0.1633
      4 C3         -1.4298   -0.2830   -0.1078 C.2       1 <0>         0.5083
      5 O1         -1.8694   -0.7424   -1.1406 O.2       1 <0>        -0.5062
      6 N1         -2.2557   -0.0499    0.9314 N.am      1 <0>        -0.6410
      7 C4         -3.5992   -0.4387    0.8590 C.ar      1 <0>         0.0858
      8 C5         -4.2711   -0.3967   -0.3549 C.ar      1 <0>        -0.0895
      9 C6         -5.5962   -0.7811   -0.4235 C.ar      1 <0>        -0.1094
     10 C7         -6.2547   -1.2074    0.7153 C.ar      1 <0>        -0.0856
     11 C8         -5.5900   -1.2507    1.9269 C.ar      1 <0>        -0.1328
     12 C9         -4.2615   -0.8731    2.0019 C.ar      1 <0>         0.0861
     13 F1         -3.6102   -0.9206    3.1846 F         1 <0>        -0.1337
     14 N2          0.7653   -0.5947   -1.1023 N.4       1 <0>        -0.3690
     15 C10         2.1720   -0.1774   -1.0626 C.3       1 <0>        -0.0126
     16 C11         2.9142   -0.7570   -2.2687 C.3       1 <0>        -0.1360
     17 C12         2.8322   -2.2855   -2.2254 C.3       1 <0>        -0.1307
     18 C13         1.3603   -2.7072   -2.1921 C.3       1 <0>        -0.1380
     19 C14         0.6758   -2.0554   -0.9888 C.3       1 <0>        -0.0109
     20 C15         3.5037   -2.8694   -3.4700 C.3       1 <0>         0.1593
     21 H2          2.9954   -2.5040   -4.3623 H         1 <0>         0.1145
     22 C16         3.4221   -4.3736   -3.4258 C.ar      1 <0>        -0.1270
     23 C17         4.3099   -5.0911   -2.6459 C.ar      1 <0>        -0.0992
     24 C18         4.2356   -6.4706   -2.6050 C.ar      1 <0>        -0.1038
     25 C19         3.2725   -7.1335   -3.3448 C.ar      1 <0>        -0.0287
     26 C20         2.3844   -6.4149   -4.1252 C.ar      1 <0>        -0.1053
     27 C21         2.4560   -5.0350   -4.1609 C.ar      1 <0>        -0.0976
     28 Cl1         3.1790   -8.8662   -3.2944 Cl        1 <0>        -0.0547
     29 O2          4.8746   -2.4675   -3.5045 O.3       1 <0>        -0.5443
     30 H3          1.3094    1.7669    0.0624 H         1 <0>         0.1033
     31 H4         -0.1315    1.9366   -0.9688 H         1 <0>         0.0924
     32 H5         -0.2919    2.0040    0.8026 H         1 <0>         0.1115
     33 H6         -1.9196    0.3871    1.7295 H         1 <0>         0.4219
     34 H7         -3.7584   -0.0633   -1.2450 H         1 <0>         0.1499
     35 H8         -6.1188   -0.7484   -1.3680 H         1 <0>         0.1406
     36 H9         -7.2907   -1.5070    0.6582 H         1 <0>         0.1431
     37 H10        -6.1072   -1.5838    2.8146 H         1 <0>         0.1478
     38 H11         2.2286    0.9108   -1.0902 H         1 <0>         0.1385
     39 H12         2.6326   -0.5410   -0.1440 H         1 <0>         0.1317
     40 H13         2.4545   -0.3937   -3.1879 H         1 <0>         0.0925
     41 H14         3.9588   -0.4474   -2.2364 H         1 <0>         0.1226
     42 H15         3.3367   -2.6524   -1.3315 H         1 <0>         0.0948
     43 H16         0.8684   -2.3844   -3.1097 H         1 <0>         0.0941
     44 H17         1.2943   -3.7917   -2.1051 H         1 <0>         0.1166
     45 H18         1.1682   -2.3790   -0.0718 H         1 <0>         0.1279
     46 H19        -0.3723   -2.3537   -0.9620 H         1 <0>         0.1365
     47 H20         5.0618   -4.5735   -2.0688 H         1 <0>         0.1297
     48 H21         4.9294   -7.0310   -1.9960 H         1 <0>         0.1386
     49 H22         1.6326   -6.9318   -4.7031 H         1 <0>         0.1389
     50 H23         1.7598   -4.4737   -4.7662 H         1 <0>         0.1335
     51 H24         5.3892   -2.7589   -2.7394 H         1 <0>         0.3788
     52 H25         0.3538   -0.3003   -1.9753 H         1 <0>         0.4296
@<TRIPOS>BOND
     1    1    2 1
     2    1   30 1
     3    1   31 1
     4    1   32 1
     5    2    3 1
     6    2    4 1
     7    2   14 1
     8    4    5 2
     9    4    6 am
    10    6    7 1
    11    6   33 1
    12    7   12 ar
    13    7    8 ar
    14    8    9 ar
    15    8   34 1
    16    9   10 ar
    17    9   35 1
    18   10   11 ar
    19   10   36 1
    20   11   12 ar
    21   11   37 1
    22   12   13 1
    23   14   19 1
    24   14   15 1
    25   14   52 1
    26   15   16 1
    27   15   38 1
    28   15   39 1
    29   16   17 1
    30   16   40 1
    31   16   41 1
    32   17   18 1
    33   17   20 1
    34   17   42 1
    35   18   19 1
    36   18   43 1
    37   18   44 1
    38   19   45 1
    39   19   46 1
    40   20   21 1
    41   20   22 1
    42   20   29 1
    43   22   27 ar
    44   22   23 ar
    45   23   24 ar
    46   23   47 1
    47   24   25 ar
    48   24   48 1
    49   25   26 ar
    50   25   28 1
    51   26   27 ar
    52   26   49 1
    53   27   50 1
    54   29   51 1
