@<TRIPOS>MOLECULE
ZINC40734994
   65    70     0     0     0
SMALL
USER_CHARGES

@<TRIPOS>ATOM
      1 C1         -0.0184    1.5028    0.0103 C.3       1 <0>        -0.1258
      2 C2          0.0021   -0.0041    0.0020 C.ar      1 <0>        -0.0717
      3 C3          0.0057   -0.6888   -1.1991 C.ar      1 <0>        -0.1120
      4 C4          0.0245   -2.0707   -1.2067 C.ar      1 <0>        -0.1061
      5 C5          0.0400   -2.7685   -0.0132 C.ar      1 <0>        -0.1244
      6 C6          0.0373   -2.0840    1.1875 C.ar      1 <0>        -0.1010
      7 C7          0.0229   -0.7015    1.1951 C.ar      1 <0>        -0.1031
      8 C8          0.0252    0.0449    2.5043 C.3       1 <0>         0.1049
      9 O1          0.0482   -0.8894    3.5853 O.3       1 <0>        -0.3166
     10 C9          0.0532   -0.3768    4.8437 C.ar      1 <0>         0.1906
     11 C10         0.0303    1.0098    5.0242 C.ar      1 <0>        -0.2093
     12 C11         0.0346    1.5526    6.2710 C.ar      1 <0>        -0.0150
     13 C12         0.0620    0.7118    7.3974 C.ar      1 <0>        -0.0891
     14 C13         0.0666    1.2390    8.7000 C.ar      1 <0>        -0.0735
     15 C14         0.0930    0.3958    9.7680 C.ar      1 <0>        -0.1269
     16 C15         0.1155   -0.9864    9.5908 C.ar      1 <0>        -0.0688
     17 C16         0.1118   -1.5331    8.3446 C.ar      1 <0>        -0.1569
     18 C17         0.0848   -0.6940    7.2170 C.ar      1 <0>         0.0094
     19 C18         0.0748   -1.2226    5.9158 C.ar      1 <0>        -0.2118
     20 C19         0.0930   -2.7145    5.7038 C.3       1 <0>         0.0530
     21 N1          1.4837   -3.1805    5.6218 N.4       1 <0>        -0.5075
     22 C20         1.5015   -4.6348    5.4151 C.3       1 <0>         0.0343
     23 C21         0.9129   -5.3317    6.6435 C.3       1 <0>        -0.1023
     24 C22         0.9314   -6.8464    6.4283 C.3       1 <0>        -0.1057
     25 C23         2.3729   -7.3141    6.2184 C.3       1 <0>        -0.0935
     26 C24         3.2074   -6.9641    7.4521 C.3       1 <0>        -0.1131
     27 C25         3.1889   -5.4494    7.6673 C.3       1 <0>        -0.0912
     28 C26         1.7474   -4.9817    7.8772 C.3       1 <0>        -0.1275
     29 C27         3.7775   -4.7525    6.4389 C.3       1 <0>        -0.1259
     30 C28         2.9430   -5.1026    5.2052 C.3       1 <0>        -0.1008
     31 C29         2.9615   -6.6172    4.9900 C.3       1 <0>        -0.1055
     32 H1          1.0042    1.8801    0.0026 H         1 <0>         0.0773
     33 H2         -0.5455    1.8639   -0.8728 H         1 <0>         0.0762
     34 H3         -0.5286    1.8543    0.9071 H         1 <0>         0.0654
     35 H4         -0.0064   -0.1437   -2.1314 H         1 <0>         0.1301
     36 H5          0.0266   -2.6056   -2.1449 H         1 <0>         0.1281
     37 H6          0.0540   -3.8484   -0.0191 H         1 <0>         0.1247
     38 H7          0.0491   -2.6290    2.1199 H         1 <0>         0.1203
     39 H8          0.9072    0.6833    2.5570 H         1 <0>         0.0844
     40 H9         -0.8725    0.6591    2.5739 H         1 <0>         0.0854
     41 H10         0.0093    1.6587    4.1611 H         1 <0>         0.1428
     42 H11         0.0175    2.6253    6.3954 H         1 <0>         0.1448
     43 H12         0.0498    2.3080    8.8528 H         1 <0>         0.1371
     44 H13         0.0969    0.8040   10.7679 H         1 <0>         0.1337
     45 H14         0.1366   -1.6333   10.4554 H         1 <0>         0.1321
     46 H15         0.1298   -2.6060    8.2224 H         1 <0>         0.1227
     47 H16        -0.4063   -3.2062    6.5387 H         1 <0>         0.1363
     48 H17        -0.4264   -2.9561    4.7765 H         1 <0>         0.1401
     49 H18         1.9459   -2.7253    4.8489 H         1 <0>         0.4256
     50 H19         0.9070   -4.8842    4.5362 H         1 <0>         0.1399
     51 H20        -0.1141   -4.9984    6.7930 H         1 <0>         0.0937
     52 H21         0.5120   -7.3428    7.3033 H         1 <0>         0.0846
     53 H22         0.3369   -7.0957    5.5493 H         1 <0>         0.0755
     54 H23         2.3861   -8.3932    6.0650 H         1 <0>         0.0872
     55 H24         2.7881   -7.4606    8.3272 H         1 <0>         0.0726
     56 H25         4.2344   -7.2973    7.3025 H         1 <0>         0.0726
     57 H26         3.7834   -5.2000    8.5462 H         1 <0>         0.0869
     58 H27         1.7342   -3.9026    8.0305 H         1 <0>         0.0573
     59 H28         1.3281   -5.4781    8.7523 H         1 <0>         0.0928
     60 H29         3.7644   -3.6735    6.5923 H         1 <0>         0.0562
     61 H30         4.8045   -5.0858    6.2894 H         1 <0>         0.0916
     62 H31         3.3623   -4.6061    4.3302 H         1 <0>         0.0942
     63 H32         3.9885   -6.9505    4.8405 H         1 <0>         0.0845
     64 H33         2.3670   -6.8666    4.1111 H         1 <0>         0.0754
     65 H34         1.9646   -2.9569    6.4802 H         1 <0>         0.4206
@<TRIPOS>BOND
     1    1    2 1
     2    1   32 1
     3    1   33 1
     4    1   34 1
     5    2    7 ar
     6    2    3 ar
     7    3    4 ar
     8    3   35 1
     9    4    5 ar
    10    4   36 1
    11    5    6 ar
    12    5   37 1
    13    6    7 ar
    14    6   38 1
    15    7    8 1
    16    8    9 1
    17    8   39 1
    18    8   40 1
    19    9   10 1
    20   10   19 ar
    21   10   11 ar
    22   11   12 ar
    23   11   41 1
    24   12   13 ar
    25   12   42 1
    26   13   18 ar
    27   13   14 ar
    28   14   15 ar
    29   14   43 1
    30   15   16 ar
    31   15   44 1
    32   16   17 ar
    33   16   45 1
    34   17   18 ar
    35   17   46 1
    36   18   19 ar
    37   19   20 1
    38   20   21 1
    39   20   47 1
    40   20   48 1
    41   21   22 1
    42   21   49 1
    43   21   65 1
    44   22   30 1
    45   22   23 1
    46   22   50 1
    47   23   28 1
    48   23   24 1
    49   23   51 1
    50   24   25 1
    51   24   52 1
    52   24   53 1
    53   25   31 1
    54   25   26 1
    55   25   54 1
    56   26   27 1
    57   26   55 1
    58   26   56 1
    59   27   28 1
    60   27   29 1
    61   27   57 1
    62   28   58 1
    63   28   59 1
    64   29   30 1
    65   29   60 1
    66   29   61 1
    67   30   31 1
    68   30   62 1
    69   31   63 1
    70   31   64 1
