@<TRIPOS>MOLECULE
ZINC63350969
   74    77     0     0     0
SMALL
USER_CHARGES

@<TRIPOS>ATOM
      1 C1         -4.1089   -2.1644   -0.9655 C.3       1 <0>        -0.1276
      2 C2         -3.4510   -3.5202   -0.9704 C.ar      1 <0>        -0.0259
      3 C3         -2.9898   -4.0604   -2.1563 C.ar      1 <0>        -0.1415
      4 C4         -2.3863   -5.3041   -2.1608 C.ar      1 <0>        -0.0159
      5 C5         -2.2437   -6.0074   -0.9793 C.ar      1 <0>        -0.6859
      6 C6         -2.7042   -5.4668    0.2067 C.ar      1 <0>        -0.0171
      7 C7         -3.3037   -4.2213    0.2118 C.ar      1 <0>        -0.1423
      8 S1         -1.4756   -7.5931   -0.9852 S.o2      1 <0>         2.6903
      9 O1         -1.9539   -8.2804    0.1629 O.2       1 <0>        -0.9545
     10 O2         -1.6238   -8.1113   -2.3000 O.2       1 <0>        -0.9511
     11 N1          0.1461   -7.3525   -0.7513 N.pl3     1 <0>        -0.9987
     12 C8          1.0458   -7.1518   -1.8954 C.3       1 <0>         0.1158
     13 C9          2.1950   -8.1604   -1.8018 C.3       1 <0>        -0.1113
     14 C10         2.8746   -8.0281   -0.4369 C.3       1 <0>        -0.1042
     15 C11         1.8654   -8.3417    0.6699 C.3       1 <0>        -0.1235
     16 C12         0.7115   -7.3296    0.6046 C.3       1 <0>         0.1186
     17 C13         4.0273   -8.9953   -0.3542 C.2       1 <0>         0.5234
     18 O3          4.2803   -9.7191   -1.2939 O.2       1 <0>        -0.5240
     19 N2          4.7770   -9.0561    0.7642 N.am      1 <0>        -0.7158
     20 C14         5.8975   -9.9964    0.8446 C.3       1 <0>         0.1332
     21 H1          5.6456  -10.9089    0.3043 H         1 <0>         0.1131
     22 C15         7.1420   -9.3614    0.2210 C.3       1 <0>        -0.0978
     23 C16         6.9031   -9.1313   -1.2726 C.3       1 <0>        -0.1405
     24 C17         7.4281   -8.0225    0.9039 C.3       1 <0>        -0.1497
     25 C18         6.1727  -10.3276    2.2888 C.2       1 <0>         0.5214
     26 O4          5.7454   -9.6093    3.1677 O.2       1 <0>        -0.5229
     27 N3          6.8936  -11.4220    2.6037 N.am      1 <0>        -0.7318
     28 C19         7.2604  -11.6812    3.9982 C.3       1 <0>         0.1263
     29 C20         8.0704  -12.9766    4.0801 C.3       1 <0>        -0.1058
     30 C21         8.4478  -13.2432    5.5145 C.2       1 <0>         0.0693
     31 C22         7.7894  -14.0303    6.3957 C.ar      1 <0>        -0.1660
     32 C23         6.5711  -14.8418    6.2869 C.ar      1 <0>        -0.0130
     33 C24         6.1477  -15.5373    7.3667 C.ar      1 <0>        -0.1497
     34 C25         6.8411  -15.5023    8.5843 C.ar      1 <0>         0.0557
     35 C26         7.9678  -14.7802    8.7614 C.ar      1 <0>        -0.2102
     36 C27         8.5037  -14.0107    7.6922 C.ar      1 <0>         0.3281
     37 N4          9.5624  -13.2413    7.6155 N.pl3     1 <0>        -0.5850
     38 C28         9.6428  -12.6901    6.2582 C.3       1 <0>         0.0607
     39 H2         -3.3525   -1.3941   -0.8154 H         1 <0>         0.0807
     40 H3         -4.6102   -2.0004   -1.9194 H         1 <0>         0.0747
     41 H4         -4.8398   -2.1181   -0.1583 H         1 <0>         0.0743
     42 H5         -3.1012   -3.5109   -3.0794 H         1 <0>         0.1344
     43 H6         -2.0266   -5.7264   -3.0874 H         1 <0>         0.1400
     44 H7         -2.5930   -6.0164    1.1298 H         1 <0>         0.1388
     45 H8         -3.6601   -3.7973    1.1390 H         1 <0>         0.1336
     46 H9          0.4967   -7.3086   -2.8239 H         1 <0>         0.1004
     47 H10         1.4462   -6.1383   -1.8719 H         1 <0>         0.0741
     48 H11         1.8025   -9.1708   -1.9163 H         1 <0>         0.0793
     49 H12         2.9203   -7.9598   -2.5903 H         1 <0>         0.0876
     50 H13         3.2451   -7.0105   -0.3129 H         1 <0>         0.1033
     51 H14         1.4760   -9.3504    0.5321 H         1 <0>         0.0775
     52 H15         2.3560   -8.2701    1.6406 H         1 <0>         0.0812
     53 H16         1.0853   -6.3303    0.8278 H         1 <0>         0.0758
     54 H17        -0.0581   -7.6037    1.3262 H         1 <0>         0.0994
     55 H18         4.5747   -8.4773    1.5158 H         1 <0>         0.4106
     56 H19         7.9950  -10.0268    0.3542 H         1 <0>         0.0803
     57 H20         6.1383   -8.3659   -1.4046 H         1 <0>         0.0573
     58 H21         7.8302   -8.8033   -1.7426 H         1 <0>         0.0550
     59 H22         6.5704  -10.0607   -1.7348 H         1 <0>         0.0686
     60 H23         7.5983   -8.1865    1.9680 H         1 <0>         0.0520
     61 H24         8.3146   -7.5701    0.4596 H         1 <0>         0.0618
     62 H25         6.5751   -7.3571    0.7707 H         1 <0>         0.0611
     63 H26         7.1695  -12.0379    1.9071 H         1 <0>         0.4092
     64 H27         7.8600  -10.8531    4.3761 H         1 <0>         0.0789
     65 H28         6.3565  -11.7793    4.5994 H         1 <0>         0.0810
     66 H29         7.4708  -13.8046    3.7022 H         1 <0>         0.1171
     67 H30         8.9743  -12.8785    3.4788 H         1 <0>         0.1202
     68 H31         6.0209  -14.8825    5.3585 H         1 <0>         0.1608
     69 H32         5.2515  -16.1349    7.2889 H         1 <0>         0.1586
     70 H33         6.4581  -16.0765    9.4150 H         1 <0>         0.1616
     71 H34         8.4647  -14.7867    9.7202 H         1 <0>         0.1610
     72 H35        10.5665  -13.0088    5.7751 H         1 <0>         0.1754
     73 H36         9.5927  -11.6018    6.2934 H         1 <0>         0.1741
     74 H37        10.1899  -13.0686    8.3348 H         1 <0>         0.4563
@<TRIPOS>BOND
     1    1    2 1
     2    1   39 1
     3    1   40 1
     4    1   41 1
     5    2    7 ar
     6    2    3 ar
     7    3    4 ar
     8    3   42 1
     9    4    5 ar
    10    4   43 1
    11    5    6 ar
    12    5    8 1
    13    6    7 ar
    14    6   44 1
    15    7   45 1
    16    8    9 2
    17    8   10 2
    18    8   11 1
    19   11   16 1
    20   11   12 1
    21   12   13 1
    22   12   46 1
    23   12   47 1
    24   13   14 1
    25   13   48 1
    26   13   49 1
    27   14   15 1
    28   14   17 1
    29   14   50 1
    30   15   16 1
    31   15   51 1
    32   15   52 1
    33   16   53 1
    34   16   54 1
    35   17   18 2
    36   17   19 am
    37   19   20 1
    38   19   55 1
    39   20   21 1
    40   20   22 1
    41   20   25 1
    42   22   23 1
    43   22   24 1
    44   22   56 1
    45   23   57 1
    46   23   58 1
    47   23   59 1
    48   24   60 1
    49   24   61 1
    50   24   62 1
    51   25   26 2
    52   25   27 am
    53   27   28 1
    54   27   63 1
    55   28   29 1
    56   28   64 1
    57   28   65 1
    58   29   30 1
    59   29   66 1
    60   29   67 1
    61   30   38 1
    62   30   31 2
    63   31   36 ar
    64   31   32 ar
    65   32   33 ar
    66   32   68 1
    67   33   34 ar
    68   33   69 1
    69   34   35 ar
    70   34   70 1
    71   35   36 ar
    72   35   71 1
    73   36   37 2
    74   37   38 1
    75   37   74 1
    76   38   72 1
    77   38   73 1
