@<TRIPOS>MOLECULE
ZINC05783924
   42    44     0     0     0
SMALL
USER_CHARGES
4-chloro-N-(5,7-dimethyltetralin-1-ylidene)amino-benzamide
@<TRIPOS>ATOM
      1 C1         -2.5960    2.8507    4.8843 C.3       1 <0>        -0.1157
      2 C2         -1.9336    2.4024    3.6071 C.ar      1 <0>        -0.0893
      3 C3         -1.1182    1.2841    3.6053 C.ar      1 <0>        -0.1006
      4 C4         -0.5046    0.8664    2.4394 C.ar      1 <0>        -0.0873
      5 C5         -0.6994    1.5623    1.2586 C.ar      1 <0>        -0.0575
      6 C6         -1.5222    2.6870    1.2584 C.ar      1 <0>        -0.0395
      7 C7         -2.1390    3.1064    2.4388 C.ar      1 <0>        -0.0819
      8 C8         -1.7474    3.4404    0.0058 C.2       1 <0>         0.1440
      9 N1         -2.6682    4.3515   -0.0743 N.2       1 <0>        -0.2260
     10 N2         -2.8602    5.0498   -1.2736 N.am      1 <0>        -0.5802
     11 C9         -3.8165    5.9959   -1.3568 C.2       1 <0>         0.5775
     12 O1         -4.5126    6.2434   -0.3910 O.2       1 <0>        -0.4938
     13 C10        -4.0190    6.7322   -2.6214 C.ar      1 <0>        -0.1293
     14 C11        -3.2174    6.4543   -3.7305 C.ar      1 <0>        -0.0753
     15 C12        -3.4144    7.1416   -4.9096 C.ar      1 <0>        -0.1154
     16 C13        -4.3981    8.1134   -4.9920 C.ar      1 <0>        -0.0087
     17 C14        -5.1929    8.3972   -3.8936 C.ar      1 <0>        -0.1145
     18 C15        -5.0090    7.7130   -2.7107 C.ar      1 <0>        -0.0411
     19 Cl1        -4.6360    8.9787   -6.4780 Cl        1 <0>        -0.0552
     20 C16        -0.8650    3.1104   -1.1805 C.3       1 <0>        -0.1195
     21 C17        -0.7335    1.5828   -1.2421 C.3       1 <0>        -0.1111
     22 C18        -0.0127    1.0858    0.0080 C.3       1 <0>        -0.0844
     23 C19         0.3799   -0.3536    2.4536 C.3       1 <0>        -0.1170
     24 H1         -3.5683    2.3671    4.9785 H         1 <0>         0.0723
     25 H2         -1.9702    2.5769    5.7337 H         1 <0>         0.0676
     26 H3         -2.7287    3.9324    4.8645 H         1 <0>         0.0686
     27 H4         -0.9606    0.7339    4.5211 H         1 <0>         0.1250
     28 H5         -2.7752    3.9791    2.4370 H         1 <0>         0.1343
     29 H6         -2.3050    4.8524   -2.0441 H         1 <0>         0.3850
     30 H7         -2.4474    5.6997   -3.6662 H         1 <0>         0.1325
     31 H8         -2.7980    6.9245   -5.7694 H         1 <0>         0.1436
     32 H9         -5.9585    9.1558   -3.9641 H         1 <0>         0.1458
     33 H10        -5.6296    7.9349   -1.8551 H         1 <0>         0.1502
     34 H11         0.1182    3.5620   -1.0481 H         1 <0>         0.0975
     35 H12        -1.3233    3.4802   -2.0976 H         1 <0>         0.0721
     36 H13        -0.1622    1.3024   -2.1269 H         1 <0>         0.0798
     37 H14        -1.7257    1.1342   -1.2922 H         1 <0>         0.0704
     38 H15         0.0021   -0.0041    0.0020 H         1 <0>         0.0843
     39 H16         1.0123    1.4566    0.0002 H         1 <0>         0.0828
     40 H17        -0.2191   -1.2392    2.2414 H         1 <0>         0.0723
     41 H18         1.1553   -0.2491    1.6946 H         1 <0>         0.0696
     42 H19         0.8434   -0.4550    3.4349 H         1 <0>         0.0683
@<TRIPOS>BOND
     1    1    2 1
     2    1   24 1
     3    1   25 1
     4    1   26 1
     5    2    7 ar
     6    2    3 ar
     7    3    4 ar
     8    3   27 1
     9    4    5 ar
    10    4   23 1
    11    5   22 1
    12    5    6 ar
    13    6    7 ar
    14    6    8 1
    15    7   28 1
    16    8    9 2
    17    8   20 1
    18    9   10 1
    19   10   11 am
    20   10   29 1
    21   11   12 2
    22   11   13 1
    23   13   18 ar
    24   13   14 ar
    25   14   15 ar
    26   14   30 1
    27   15   16 ar
    28   15   31 1
    29   16   17 ar
    30   16   19 1
    31   17   18 ar
    32   17   32 1
    33   18   33 1
    34   20   21 1
    35   20   34 1
    36   20   35 1
    37   21   22 1
    38   21   36 1
    39   21   37 1
    40   22   38 1
    41   22   39 1
    42   23   40 1
    43   23   41 1
    44   23   42 1
