@<TRIPOS>MOLECULE
ZINC06679364
   34    36     0     0     0
SMALL
USER_CHARGES
2-(2,3-dichlorophenyl)-4,10-dimethyl-3-thia-6,8,9-triazabicyclo[5.3.0]deca-9,11-dien-5-one
@<TRIPOS>ATOM
      1 C1          1.7301   -0.8554    2.3165 C.3       1 <0>        -0.1017
      2 C2          3.2241   -1.0106    2.4389 C.2       1 <0>         0.1180
      3 C3          4.1620   -0.7800    1.4104 C.2       1 <0>        -0.2483
      4 C4          5.3919   -1.0287    1.9109 C.2       1 <0>         0.3467
      5 N1          5.2268   -1.4005    3.2185 N.pl3     1 <0>        -0.4984
      6 H1          5.9587   -1.6452    3.8545 H         1 <0>         0.4493
      7 N2          3.8635   -1.3795    3.5116 N.2       1 <0>        -0.2615
      8 N3          6.6423   -0.9682    1.3434 N.am      1 <0>        -0.6277
      9 C5          7.1068   -0.6156    0.1825 C.2       1 <0>         0.5437
     10 O1          8.3169   -0.6028    0.1001 O.2       1 <0>        -0.5225
     11 C6          6.3958   -0.2270   -1.0538 C.3       1 <0>        -0.1066
     12 H2          6.0993   -1.1303   -1.5868 H         1 <0>         0.1214
     13 S1          4.9289    0.7633   -0.7379 S.3       1 <0>        -0.1498
     14 C7          3.7459   -0.3380    0.0425 C.3       1 <0>         0.0504
     15 H3          3.6226   -1.2190   -0.5874 H         1 <0>         0.1074
     16 C8          2.4202    0.3710    0.1457 C.ar      1 <0>        -0.0410
     17 C9          1.2624   -0.2654   -0.2615 C.ar      1 <0>        -0.0884
     18 C10         0.0459    0.3841   -0.1667 C.ar      1 <0>        -0.1014
     19 C11        -0.0144    1.6708    0.3353 C.ar      1 <0>        -0.0936
     20 C12         1.1428    2.3089    0.7431 C.ar      1 <0>        -0.0320
     21 C13         2.3616    1.6582    0.6482 C.ar      1 <0>        -0.0255
     22 Cl1         3.8151    2.4576    1.1601 Cl        1 <0>        -0.0102
     23 Cl2         1.0677    3.9248    1.3730 Cl        1 <0>        -0.0420
     24 C14         7.3506    0.5758   -1.9397 C.3       1 <0>        -0.1142
     25 H4          1.3261   -1.6797    1.7288 H         1 <0>         0.0846
     26 H5          1.2814   -0.8632    3.3098 H         1 <0>         0.0757
     27 H6          1.5023    0.0891    1.8223 H         1 <0>         0.0933
     28 H7          7.3410   -1.2563    1.9515 H         1 <0>         0.4047
     29 H8          1.3084   -1.2707   -0.6535 H         1 <0>         0.1439
     30 H9         -0.8580   -0.1140   -0.4850 H         1 <0>         0.1456
     31 H10        -0.9658    2.1759    0.4132 H         1 <0>         0.1463
     32 H11         8.2169   -0.0371   -2.1888 H         1 <0>         0.0859
     33 H12         6.8371    0.8684   -2.8555 H         1 <0>         0.0779
     34 H13         7.6781    1.4679   -1.4058 H         1 <0>         0.0700
@<TRIPOS>BOND
     1    1    2 1
     2    1   25 1
     3    1   26 1
     4    1   27 1
     5    2    7 2
     6    2    3 1
     7    3   14 1
     8    3    4 2
     9    4    5 1
    10    4    8 1
    11    5    6 1
    12    5    7 1
    13    8    9 am
    14    8   28 1
    15    9   10 2
    16    9   11 1
    17   11   12 1
    18   11   13 1
    19   11   24 1
    20   13   14 1
    21   14   15 1
    22   14   16 1
    23   16   21 ar
    24   16   17 ar
    25   17   18 ar
    26   17   29 1
    27   18   19 ar
    28   18   30 1
    29   19   20 ar
    30   19   31 1
    31   20   21 ar
    32   20   23 1
    33   21   22 1
    34   24   32 1
    35   24   33 1
    36   24   34 1
