@<TRIPOS>MOLECULE
ZINC13635385
   31    33     0     0     0
SMALL
USER_CHARGES

@<TRIPOS>ATOM
      1 C1         -0.0163    1.3513    0.0095 C.2       1 <0>        -0.1526
      2 C2          1.1833    2.0380    0.0017 C.2       1 <0>        -0.1512
      3 C3          2.3426    1.3358   -0.0131 C.2       1 <0>        -0.1279
      4 S1          1.7535   -0.3495   -0.0166 S.3       1 <0>         0.0422
      5 C4          0.0021   -0.0041    0.0020 C.2       1 <0>        -0.1885
      6 C5          3.7608    1.8454   -0.0244 C.3       1 <0>         0.0631
      7 C6          4.2473    2.0081    1.3926 C.2       1 <0>         0.1292
      8 N1          4.1368    3.0773    2.1293 N.2       1 <0>        -0.2754
      9 N2          4.6582    2.8736    3.2861 N.2       1 <0>        -0.3408
     10 C7          5.1350    1.6521    3.3530 C.2       1 <0>         0.3913
     11 N3          4.8824    1.0577    2.1471 N.pl3     1 <0>        -0.4596
     12 C8          5.2082   -0.2516    1.7626 C.ar      1 <0>         0.1628
     13 C9          6.4339   -0.5170    1.1677 C.ar      1 <0>        -0.0381
     14 C10         6.7523   -1.8070    0.7905 C.ar      1 <0>        -0.1794
     15 C11         5.8516   -2.8343    1.0047 C.ar      1 <0>        -0.0531
     16 C12         4.6298   -2.5740    1.5969 C.ar      1 <0>        -0.1096
     17 C13         4.3073   -1.2858    1.9815 C.ar      1 <0>         0.0168
     18 Cl1         2.7760   -0.9604    2.7317 Cl        1 <0>        -0.0218
     19 C14         8.0828   -2.0954    0.1442 C.3       1 <0>         0.5144
     20 F1          9.0248   -2.4011    1.1324 F         1 <0>        -0.1711
     21 F2          7.9521   -3.1817   -0.7276 F         1 <0>        -0.1766
     22 F3          8.5067   -0.9709   -0.5721 F         1 <0>        -0.1752
     23 S2          5.9409    0.9158    4.7361 S.3       1 <0>        -0.7909
     24 H1         -0.9542    1.8866    0.0258 H         1 <0>         0.1294
     25 H2          1.1967    3.1179    0.0070 H         1 <0>         0.1347
     26 H3         -0.8275   -0.6955    0.0065 H         1 <0>         0.1803
     27 H4          4.3986    1.1333   -0.5480 H         1 <0>         0.0860
     28 H5          3.7967    2.8084   -0.5337 H         1 <0>         0.1159
     29 H6          7.1379    0.2845    0.9997 H         1 <0>         0.1464
     30 H7          6.1031   -3.8420    0.7085 H         1 <0>         0.1483
     31 H8          3.9282   -3.3782    1.7626 H         1 <0>         0.1509
@<TRIPOS>BOND
     1    1    5 2
     2    1    2 1
     3    1   24 1
     4    2    3 2
     5    2   25 1
     6    3    4 1
     7    3    6 1
     8    4    5 1
     9    5   26 1
    10    6   27 1
    11    6   28 1
    12    6    7 1
    13    7   11 1
    14    7    8 2
    15    8    9 1
    16    9   10 2
    17   10   23 1
    18   10   11 1
    19   11   12 1
    20   12   17 ar
    21   12   13 ar
    22   13   14 ar
    23   13   29 1
    24   14   15 ar
    25   14   19 1
    26   15   16 ar
    27   15   30 1
    28   16   17 ar
    29   16   31 1
    30   17   18 1
    31   19   20 1
    32   19   21 1
    33   19   22 1
