@<TRIPOS>MOLECULE
ZINC36822523
   36    38     0     0     0
SMALL
USER_CHARGES

@<TRIPOS>ATOM
      1 C1         -0.0184    1.5028    0.0103 C.3       1 <0>        -0.1079
      2 C2          0.0021   -0.0041    0.0020 C.ar      1 <0>        -0.1320
      3 C3          0.0058   -0.6873   -1.2003 C.ar      1 <0>        -0.0643
      4 C4          0.0245   -2.0683   -1.2121 C.ar      1 <0>        -0.1849
      5 C5          0.0401   -2.7715   -0.0146 C.ar      1 <0>         0.2223
      6 C6          0.0368   -2.0822    1.1924 C.ar      1 <0>        -0.1078
      7 C7          0.0229   -0.7001    1.1966 C.ar      1 <0>        -0.0617
      8 Cl1         0.0562   -2.9559    2.6924 Cl        1 <0>        -0.0731
      9 N1          0.0585   -4.1688   -0.0231 N.pl3     1 <0>        -0.7410
     10 C8          0.0615   -4.8936   -1.2962 C.3       1 <0>         0.2070
     11 C9          0.0826   -6.3767   -1.0298 C.2       1 <0>        -0.0459
     12 C10         1.1783   -7.1410   -0.8897 C.2       1 <0>         0.0727
     13 N2          0.7873   -8.4047   -0.6639 N.2       1 <0>        -0.4417
     14 C11        -0.5138   -8.4495   -0.6592 C.2       1 <0>         0.1856
     15 N3         -1.0303   -7.1998   -0.8788 N.pl3     1 <0>        -0.4219
     16 C12        -2.4033   -7.0862   -0.8957 C.2       1 <0>         0.0187
     17 C13        -3.1785   -8.1521   -0.7019 C.2       1 <0>        -0.1417
     18 S1         -1.9718   -9.4508   -0.4837 S.3       1 <0>         0.1336
     19 C14        -4.6828   -8.2408   -0.6811 C.3       1 <0>        -0.0643
     20 C15         2.6044   -6.6609   -0.9726 C.3       1 <0>        -0.0732
     21 H1          1.0042    1.8801    0.0026 H         1 <0>         0.0684
     22 H2         -0.5455    1.8639   -0.8728 H         1 <0>         0.0659
     23 H3         -0.5286    1.8543    0.9071 H         1 <0>         0.0648
     24 H4         -0.0064   -0.1402   -2.1315 H         1 <0>         0.1281
     25 H5          0.0266   -2.6008   -2.1517 H         1 <0>         0.1292
     26 H6          0.0244   -0.1634    2.1338 H         1 <0>         0.1320
     27 H7          0.0694   -4.6588    0.8140 H         1 <0>         0.4044
     28 H8         -0.8349   -4.6387   -1.8615 H         1 <0>         0.0686
     29 H9          0.9449   -4.6151   -1.8708 H         1 <0>         0.0907
     30 H10        -2.8567   -6.1212   -1.0677 H         1 <0>         0.1709
     31 H11        -5.0487   -8.4437   -1.6876 H         1 <0>         0.0884
     32 H12        -4.9901   -9.0458   -0.0136 H         1 <0>         0.0852
     33 H13        -5.0975   -7.2969   -0.3271 H         1 <0>         0.0885
     34 H14         2.9457   -6.3633    0.0188 H         1 <0>         0.0788
     35 H15         3.2371   -7.4649   -1.3486 H         1 <0>         0.0807
     36 H16         2.6617   -5.8074   -1.6481 H         1 <0>         0.0768
@<TRIPOS>BOND
     1    1    2 1
     2    1   21 1
     3    1   22 1
     4    1   23 1
     5    2    7 ar
     6    2    3 ar
     7    3    4 ar
     8    3   24 1
     9    4    5 ar
    10    4   25 1
    11    5    6 ar
    12    5    9 1
    13    6    7 ar
    14    6    8 1
    15    7   26 1
    16    9   10 1
    17    9   27 1
    18   10   11 1
    19   10   28 1
    20   10   29 1
    21   11   15 1
    22   11   12 2
    23   12   13 1
    24   12   20 1
    25   13   14 2
    26   14   18 1
    27   14   15 1
    28   15   16 1
    29   16   17 2
    30   16   30 1
    31   17   18 1
    32   17   19 1
    33   19   31 1
    34   19   32 1
    35   19   33 1
    36   20   34 1
    37   20   35 1
    38   20   36 1
