@<TRIPOS>MOLECULE
ZINC08770118
   62    66     0     0     0
SMALL
USER_CHARGES
3-[1-[2-hydroxy-3-[2-(1H-indol-3-yl)ethylamino]propyl]indol-3-yl]-1-(2-thienyl)prop-2-en-1-one
@<TRIPOS>ATOM
      1 C1         -8.4106    9.9096    4.1979 C.ar      1 <0>        -0.1317
      2 C2         -8.8554   11.2199    4.3104 C.ar      1 <0>        -0.0930
      3 C3         -7.9603   12.2542    4.4730 C.ar      1 <0>        -0.1213
      4 C4         -6.5962   11.9858    4.5253 C.ar      1 <0>         0.0940
      5 C5         -6.1507   10.6565    4.4108 C.ar      1 <0>        -0.1010
      6 C6         -7.0755    9.6234    4.2462 C.ar      1 <0>        -0.0850
      7 C7         -4.6897   10.7099    4.5030 C.2       1 <0>        -0.2068
      8 C8         -4.3536   11.9994    4.6650 C.2       1 <0>         0.0855
      9 N1         -5.4794   12.7770    4.6753 N.pl3     1 <0>        -0.5876
     10 H1         -5.4895   13.7416    4.7772 H         1 <0>         0.4235
     11 C9         -3.7438    9.5386    4.4353 C.3       1 <0>        -0.0593
     12 C10        -3.4368    9.2149    2.9718 C.3       1 <0>        -0.0033
     13 C11        -2.1968    7.7331    1.5126 C.3       1 <0>        -0.0384
     14 C12        -1.2365    6.5424    1.4847 C.3       1 <0>         0.0623
     15 H2         -0.3576    6.7702    2.0879 H         1 <0>         0.1301
     16 C13        -0.8075    6.2668    0.0421 C.3       1 <0>         0.0813
     17 N2          0.2023    5.2056    0.0272 N.pl3     1 <0>        -0.4721
     18 C14         1.5424    5.4131    0.0160 C.2       1 <0>         0.0861
     19 C15         2.1947    4.2116    0.0036 C.2       1 <0>        -0.1593
     20 C16         1.1501    3.1699    0.0076 C.ar      1 <0>        -0.0843
     21 C17        -0.0762    3.8540    0.0226 C.ar      1 <0>         0.0994
     22 C18        -1.2621    3.1275    0.0303 C.ar      1 <0>        -0.1219
     23 C19        -1.2247    1.7498    0.0174 C.ar      1 <0>        -0.0926
     24 C20        -0.0126    1.0758    0.0080 C.ar      1 <0>        -0.1316
     25 C21         1.1733    1.7781    0.0004 C.ar      1 <0>        -0.0698
     26 C22         3.6427    4.0006   -0.0108 C.2       1 <0>         0.0517
     27 C23         4.4826    5.0644   -0.0129 C.2       1 <0>        -0.2615
     28 C24         5.8837    4.8602   -0.0269 C.2       1 <0>         0.4679
     29 O1          6.3349    3.7270   -0.0370 O.2       1 <0>        -0.4566
     30 C25         6.7934    6.0124   -0.0291 C.2       1 <0>        -0.2539
     31 C26         8.1795    6.0314   -0.0417 C.2       1 <0>        -0.0750
     32 C27         8.7879    7.2623   -0.0415 C.2       1 <0>        -0.1777
     33 C28         8.0186    8.3824   -0.0292 C.2       1 <0>        -0.1811
     34 S1          6.4031    7.7533   -0.0241 S.3       1 <0>         0.1349
     35 O2         -1.8923    5.3889    2.0152 O.3       1 <0>        -0.5399
     36 H3         -9.1256    9.1102    4.0705 H         1 <0>         0.1273
     37 H4         -9.9139   11.4304    4.2697 H         1 <0>         0.1319
     38 H5         -8.3163   13.2702    4.5593 H         1 <0>         0.1259
     39 H6         -6.7368    8.6017    4.1577 H         1 <0>         0.1178
     40 H7         -3.3441   12.3685    4.7696 H         1 <0>         0.1731
     41 H8         -4.2039    8.6721    4.9103 H         1 <0>         0.0925
     42 H9         -2.8183    9.7886    4.9540 H         1 <0>         0.0919
     43 H10        -2.9768   10.0814    2.4968 H         1 <0>         0.1310
     44 H11        -4.3623    8.9649    2.4531 H         1 <0>         0.1314
     45 H12        -1.7282    8.5893    1.0274 H         1 <0>         0.1443
     46 H13        -3.1138    7.4728    0.9838 H         1 <0>         0.1382
     47 H14        -0.3874    7.1743   -0.3916 H         1 <0>         0.1126
     48 H15        -1.6734    5.9527   -0.5407 H         1 <0>         0.1038
     49 H16         2.0218    6.3809    0.0171 H         1 <0>         0.1775
     50 H17        -2.2113    3.6424    0.0421 H         1 <0>         0.1131
     51 H18        -2.1481    1.1897    0.0191 H         1 <0>         0.1298
     52 H19         0.0021   -0.0041    0.0020 H         1 <0>         0.1302
     53 H20         2.1159    1.2511   -0.0107 H         1 <0>         0.1291
     54 H21         4.0422    2.9972   -0.0199 H         1 <0>         0.1391
     55 H22         4.0832    6.0678   -0.0039 H         1 <0>         0.1236
     56 H23         8.7556    5.1179   -0.0510 H         1 <0>         0.1476
     57 H24         9.8651    7.3394   -0.0514 H         1 <0>         0.1419
     58 H25         8.3365    9.4145   -0.0276 H         1 <0>         0.1912
     59 H26        -2.6850    5.1277    1.5267 H         1 <0>         0.3878
     60 N3         -2.5109    8.0680    2.9144 N.4       1 <0>        -0.5156
     61 H27        -2.9484    7.2567    3.3667 H         1 <0>         0.4377
     62 H28        -1.6431    8.3083    3.4079 H         1 <0>         0.4332
@<TRIPOS>BOND
     1    1    6 ar
     2    1    2 ar
     3    1   36 1
     4    2    3 ar
     5    2   37 1
     6    3    4 ar
     7    3   38 1
     8    4    9 1
     9    4    5 ar
    10    5    6 ar
    11    5    7 1
    12    6   39 1
    13    7    8 2
    14    7   11 1
    15    8    9 1
    16    8   40 1
    17    9   10 1
    18   11   12 1
    19   11   41 1
    20   11   42 1
    21   12   43 1
    22   12   44 1
    23   12   60 1
    24   13   14 1
    25   13   45 1
    26   13   46 1
    27   13   60 1
    28   14   15 1
    29   14   16 1
    30   14   35 1
    31   16   17 1
    32   16   47 1
    33   16   48 1
    34   17   21 1
    35   17   18 1
    36   18   19 2
    37   18   49 1
    38   19   20 1
    39   19   26 1
    40   20   25 ar
    41   20   21 ar
    42   21   22 ar
    43   22   23 ar
    44   22   50 1
    45   23   24 ar
    46   23   51 1
    47   24   25 ar
    48   24   52 1
    49   25   53 1
    50   26   27 2
    51   26   54 1
    52   27   28 1
    53   27   55 1
    54   28   29 2
    55   28   30 1
    56   30   34 1
    57   30   31 2
    58   31   32 1
    59   31   56 1
    60   32   33 2
    61   32   57 1
    62   33   34 1
    63   33   58 1
    64   35   59 1
    65   60   61 1
    66   60   62 1
