@<TRIPOS>MOLECULE
ZINC31986408
   59    61     0     0     0
SMALL
USER_CHARGES
N-[(2S)-2-(diethylamino)-2-(3-thienyl)ethyl]-6-methyl-4-oxo-1-[3-(trifluoromethyl)phenyl]pyridazine-3-carboxamide
@<TRIPOS>ATOM
      1 C1          6.0677    5.4271    1.1439 C.3       1 <0>        -0.1839
      2 C2          5.7120    6.7127    1.8933 C.3       1 <0>        -0.0381
      3 N1          5.1574    6.3741    3.2108 N.4       1 <0>        -0.3969
      4 C3          6.2132    5.9190    4.1252 C.3       1 <0>        -0.0219
      5 C4          5.5845    5.1424    5.2839 C.3       1 <0>        -0.1846
      6 C5          4.4216    7.5108    3.7802 C.3       1 <0>         0.0903
      7 H1          3.6997    7.1109    4.5075 H         1 <0>         0.1491
      8 C6          3.7072    8.2689    2.6596 C.3       1 <0>         0.1040
      9 N2          2.8650    7.3402    1.9016 N.am      1 <0>        -0.7543
     10 C7          2.2148    7.7656    0.8004 C.2       1 <0>         0.5988
     11 O1          2.3271    8.9200    0.4360 O.2       1 <0>        -0.4719
     12 C8          1.3659    6.8295    0.0364 C.2       1 <0>        -0.0395
     13 C9          0.6503    7.2792   -1.1680 C.2       1 <0>         0.3793
     14 O2          0.7364    8.4301   -1.5669 O.2       1 <0>        -0.4378
     15 C10        -0.1445    6.3190   -1.8464 C.2       1 <0>        -0.2434
     16 C11        -0.1840    5.0622   -1.3436 C.2       1 <0>         0.1318
     17 N3          0.5067    4.7405   -0.2221 N.pl3     1 <0>        -0.2606
     18 N4          1.2356    5.5770    0.4198 N.2       1 <0>        -0.1763
     19 C12         0.4241    3.4281    0.2552 C.ar      1 <0>         0.1085
     20 C13        -0.8153    2.8186    0.4055 C.ar      1 <0>        -0.0760
     21 C14        -0.8929    1.5210    0.8711 C.ar      1 <0>        -0.0959
     22 C15         0.2609    0.8319    1.1982 C.ar      1 <0>        -0.0509
     23 C16         1.4960    1.4357    1.0503 C.ar      1 <0>        -0.1695
     24 C17         1.5811    2.7314    0.5796 C.ar      1 <0>        -0.0506
     25 C18         2.7508    0.6789    1.4025 C.3       1 <0>         0.5120
     26 F1          2.4122   -0.6019    1.8520 F         1 <0>        -0.1674
     27 F2          3.5662    0.5754    0.2704 F         1 <0>        -0.1710
     28 F3          3.4387    1.3608    2.4119 F         1 <0>        -0.1789
     29 C19        -1.0110    4.0096   -2.0358 C.3       1 <0>        -0.1507
     30 C20         5.3864    8.4357    4.4766 C.2       1 <0>        -0.1542
     31 C21         5.1586    8.8349    5.7801 C.2       1 <0>        -0.1584
     32 C22         6.0490    9.6629    6.3792 C.2       1 <0>        -0.1475
     33 S1          7.2498    9.9144    5.0822 S.3       1 <0>         0.1329
     34 C23         6.4877    8.8929    3.8320 C.2       1 <0>        -0.1932
     35 H2          6.4830    5.6807    0.1574 H         1 <0>         0.1073
     36 H3          5.1625    4.8157    1.0145 H         1 <0>         0.0787
     37 H4          6.8134    4.8606    1.7210 H         1 <0>         0.0817
     38 H5          6.6172    7.3241    2.0227 H         1 <0>         0.1290
     39 H6          4.9663    7.2792    1.3162 H         1 <0>         0.1434
     40 H7          6.9120    5.2656    3.5822 H         1 <0>         0.1316
     41 H8          6.7570    6.7899    4.5198 H         1 <0>         0.1357
     42 H9          6.3751    4.8016    5.9686 H         1 <0>         0.1061
     43 H10         5.0407    4.2715    4.8892 H         1 <0>         0.0803
     44 H11         4.8857    5.7958    5.8268 H         1 <0>         0.0784
     45 H12         3.0801    9.0610    3.0947 H         1 <0>         0.1155
     46 H13         4.4531    8.7191    1.9880 H         1 <0>         0.1029
     47 H14         2.7633    6.2957    2.2313 H         1 <0>         0.4192
     48 H15        -0.6964    6.5809   -2.7370 H         1 <0>         0.1745
     49 H16        -1.7169    3.3577    0.1546 H         1 <0>         0.1511
     50 H17        -1.8557    1.0450    0.9840 H         1 <0>         0.1571
     51 H18         0.1973   -0.1817    1.5657 H         1 <0>         0.1544
     52 H19         2.5461    3.2022    0.4636 H         1 <0>         0.1418
     53 H20        -0.9239    3.0580   -1.4910 H         1 <0>         0.0935
     54 H21        -0.6483    3.8770   -3.0658 H         1 <0>         0.1054
     55 H22        -2.0645    4.3255   -2.0559 H         1 <0>         0.1077
     56 H23         4.2863    8.4890    6.3148 H         1 <0>         0.1458
     57 H24         6.0334   10.0693    7.3797 H         1 <0>         0.1989
     58 H25         6.8185    8.6912    2.8239 H         1 <0>         0.1913
     59 H26         4.4469    5.5453    3.0757 H         1 <0>         0.4356
@<TRIPOS>BOND
     1    1    2 1
     2    1   35 1
     3    1   36 1
     4    1   37 1
     5    2    3 1
     6    2   38 1
     7    2   39 1
     8    3    4 1
     9    3    6 1
    10    3   59 1
    11    4    5 1
    12    4   40 1
    13    4   41 1
    14    5   42 1
    15    5   43 1
    16    5   44 1
    17    6    7 1
    18    6    8 1
    19    6   30 1
    20    8    9 1
    21    8   45 1
    22    8   46 1
    23    9   10 am
    24    9   47 1
    25   10   11 2
    26   10   12 1
    27   12   18 2
    28   12   13 1
    29   13   14 2
    30   13   15 1
    31   15   16 2
    32   15   48 1
    33   16   17 1
    34   16   29 1
    35   17   18 1
    36   17   19 1
    37   19   24 ar
    38   19   20 ar
    39   20   21 ar
    40   20   49 1
    41   21   22 ar
    42   21   50 1
    43   22   23 ar
    44   22   51 1
    45   23   24 ar
    46   23   25 1
    47   24   52 1
    48   25   26 1
    49   25   27 1
    50   25   28 1
    51   29   53 1
    52   29   54 1
    53   29   55 1
    54   30   34 2
    55   30   31 1
    56   31   32 2
    57   31   56 1
    58   32   33 1
    59   32   57 1
    60   33   34 1
    61   34   58 1
