@<TRIPOS>MOLECULE
ZINC00291937
   38    39     0     0     0
SMALL
USER_CHARGES

@<TRIPOS>ATOM
      1 C1         -0.1753    1.6115    0.1006 C.3       1 <0>        -0.1238
      2 C2          0.0309    0.1191    0.0620 C.2       1 <0>        -0.1090
      3 C3          0.1715   -0.5517    1.1784 C.2       1 <0>        -0.1543
      4 C4          0.1271    0.1689    2.5012 C.3       1 <0>        -0.1000
      5 H1         -0.4320    1.1045    2.5083 H         1 <0>         0.1233
      6 C5          0.0911   -0.6852    3.7701 C.3       1 <0>        -0.1812
      7 H2         -0.4913   -0.3113    4.6121 H         1 <0>         0.1375
      8 C6          1.3642    0.0784    3.3969 C.3       1 <0>        -0.0744
      9 C7          1.7215    1.3080    4.2344 C.3       1 <0>        -0.1184
     10 C8          2.5518   -0.7367    2.8810 C.3       1 <0>        -0.1189
     11 C9          0.1023   -2.1827    3.6014 C.2       1 <0>         0.5393
     12 O1          1.0341   -2.8336    4.0244 O.2       1 <0>        -0.4559
     13 N1         -0.9232   -2.7986    2.9806 N.am      1 <0>        -0.6578
     14 C10        -0.9676   -4.1911    2.9218 C.ar      1 <0>         0.3756
     15 C11        -2.0819   -4.8222    2.3804 C.ar      1 <0>        -0.2029
     16 C12        -2.1133   -6.2044    2.3276 C.ar      1 <0>        -0.0166
     17 C13        -1.0237   -6.9111    2.8204 C.ar      1 <0>        -0.1819
     18 C14         0.0505   -6.2182    3.3446 C.ar      1 <0>         0.1697
     19 N2          0.0536   -4.8992    3.3768 N.ar      1 <0>        -0.4693
     20 Br1        -1.0110   -8.8015    2.7749 Br        1 <0>        -0.0331
     21 C15         0.0754   -0.6015   -1.2608 C.3       1 <0>        -0.1214
     22 H3          0.7919    2.1129    0.0669 H         1 <0>         0.0701
     23 H4         -0.7735    1.9179   -0.7576 H         1 <0>         0.0627
     24 H5         -0.6935    1.8830    1.0203 H         1 <0>         0.0677
     25 H6          0.3193   -1.6212    1.1508 H         1 <0>         0.1086
     26 H7          0.8959    1.5423    4.9064 H         1 <0>         0.0604
     27 H8          2.6182    1.1016    4.8187 H         1 <0>         0.0671
     28 H9          1.9049    2.1561    3.5747 H         1 <0>         0.0661
     29 H10         2.9819   -0.2413    2.0106 H         1 <0>         0.0594
     30 H11         3.3060   -0.8154    3.6640 H         1 <0>         0.0642
     31 H12         2.2135   -1.7343    2.6009 H         1 <0>         0.0659
     32 H13        -1.6303   -2.2732    2.5746 H         1 <0>         0.4209
     33 H14        -2.9120   -4.2413    2.0065 H         1 <0>         0.1457
     34 H15        -2.9656   -6.7220    1.9129 H         1 <0>         0.1490
     35 H16         0.9001   -6.7629    3.7290 H         1 <0>         0.1684
     36 H17        -0.0588    0.1162   -2.0702 H         1 <0>         0.0645
     37 H18         1.0392   -1.0982   -1.3717 H         1 <0>         0.0663
     38 H19        -0.7222   -1.3436   -1.2972 H         1 <0>         0.0664
@<TRIPOS>BOND
     1    1    2 1
     2    1   22 1
     3    1   23 1
     4    1   24 1
     5    2    3 2
     6    2   21 1
     7    3    4 1
     8    3   25 1
     9    4    5 1
    10    4    8 1
    11    4    6 1
    12    6    7 1
    13    6    8 1
    14    6   11 1
    15    8    9 1
    16    8   10 1
    17    9   26 1
    18    9   27 1
    19    9   28 1
    20   10   29 1
    21   10   30 1
    22   10   31 1
    23   11   12 2
    24   11   13 am
    25   13   14 1
    26   13   32 1
    27   14   19 ar
    28   14   15 ar
    29   15   16 ar
    30   15   33 1
    31   16   17 ar
    32   16   34 1
    33   17   18 ar
    34   17   20 1
    35   18   19 ar
    36   18   35 1
    37   21   36 1
    38   21   37 1
    39   21   38 1
