@<TRIPOS>MOLECULE
ZINC35742918
   71    74     0     0     0
SMALL
USER_CHARGES

@<TRIPOS>ATOM
      1 C1         -0.7928   -4.2193   -0.6691 C.3       1 <0>        -0.1525
      2 C2         -1.5946   -4.4639    0.6109 C.3       1 <0>         0.0568
      3 O1         -0.7363   -4.3236    1.7447 O.3       1 <0>        -0.3832
      4 C3         -1.3900   -4.5332    2.9980 C.3       1 <0>         0.0646
      5 C4         -0.3811   -4.3588    4.1350 C.3       1 <0>         0.0722
      6 O2          0.0714   -3.0037    4.1666 O.3       1 <0>        -0.2657
      7 C5          0.9777   -2.6783    5.1247 C.2       1 <0>         0.4163
      8 N1          1.5061   -1.4688    5.3098 N.2       1 <0>        -0.5214
      9 C6          2.3489   -1.5016    6.3236 C.2       1 <0>         0.3530
     10 N2          2.3667   -2.7663    6.8080 N.pl3     1 <0>        -0.3073
     11 N3          1.4685   -3.5034    6.0194 N.2       1 <0>        -0.3548
     12 C7          3.1261   -3.2431    7.8851 C.ar      1 <0>         0.0736
     13 C8          3.2101   -2.5025    9.0571 C.ar      1 <0>        -0.0560
     14 C9          3.9575   -2.9720   10.1181 C.ar      1 <0>        -0.1746
     15 C10         4.6258   -4.1855   10.0139 C.ar      1 <0>         0.2291
     16 C11         4.5416   -4.9262    8.8415 C.ar      1 <0>        -0.1869
     17 C12         3.7898   -4.4588    7.7826 C.ar      1 <0>        -0.0463
     18 N4          5.3832   -4.6610   11.0883 N.pl3     1 <0>        -0.7347
     19 C13         6.0878   -5.9407   10.9782 C.3       1 <0>         0.0940
     20 C14         6.8350   -6.2253   12.2826 C.3       1 <0>         0.1013
     21 H1          6.1229   -6.2724   13.1065 H         1 <0>         0.1176
     22 C15         7.5710   -7.5618   12.1677 C.3       1 <0>         0.0298
     23 O3          8.1726   -7.8838   13.4232 O.3       1 <0>        -0.2998
     24 C16         8.8698   -9.0483   13.4927 C.ar      1 <0>         0.1244
     25 C17         8.9777   -9.8614   12.3736 C.ar      1 <0>        -0.2066
     26 C18         9.6873  -11.0442   12.4466 C.ar      1 <0>        -0.0866
     27 C19        10.2900  -11.4182   13.6338 C.ar      1 <0>        -0.1520
     28 C20        10.1836  -10.6099   14.7503 C.ar      1 <0>        -0.0837
     29 C21         9.4797   -9.4230   14.6808 C.ar      1 <0>        -0.1140
     30 C22         9.3694   -8.5394   15.8966 C.3       1 <0>        -0.1075
     31 O4          7.7793   -5.1812   12.5283 O.3       1 <0>        -0.5452
     32 C23         3.1350   -0.3601    6.8400 C.ar      1 <0>        -0.0482
     33 C24         4.3935   -0.5739    7.4035 C.ar      1 <0>        -0.0804
     34 C25         5.1218    0.4951    7.8834 C.ar      1 <0>        -0.1211
     35 C26         4.6065    1.7769    7.8072 C.ar      1 <0>        -0.0597
     36 C27         3.3592    1.9955    7.2500 C.ar      1 <0>        -0.1242
     37 C28         2.6238    0.9358    6.7605 C.ar      1 <0>        -0.0584
     38 C29         5.4073    2.9399    8.3338 C.3       1 <0>        -0.1209
     39 H2          0.0174   -4.9455   -0.7346 H         1 <0>         0.0625
     40 H3         -1.4475   -4.3263   -1.5339 H         1 <0>         0.0720
     41 H4         -0.3771   -3.2118   -0.6505 H         1 <0>         0.0646
     42 H5         -2.4048   -3.7377    0.6764 H         1 <0>         0.0504
     43 H6         -2.0102   -5.4713    0.5923 H         1 <0>         0.0488
     44 H7         -2.1960   -3.8084    3.1131 H         1 <0>         0.0639
     45 H8         -1.8014   -5.5421    3.0290 H         1 <0>         0.0773
     46 H9         -0.8571   -4.6051    5.0841 H         1 <0>         0.0842
     47 H10         0.4685   -5.0218    3.9717 H         1 <0>         0.0773
     48 H11         2.6909   -1.5589    9.1380 H         1 <0>         0.1313
     49 H12         4.0232   -2.3960   11.0293 H         1 <0>         0.1343
     50 H13         5.0613   -5.8694    8.7602 H         1 <0>         0.1302
     51 H14         3.7210   -5.0365    6.8727 H         1 <0>         0.1318
     52 H15         5.4422   -4.1437   11.9067 H         1 <0>         0.4090
     53 H16         5.3676   -6.7371   10.7908 H         1 <0>         0.0759
     54 H17         6.8000   -5.8937   10.1544 H         1 <0>         0.0698
     55 H18         6.8632   -8.3438   11.8927 H         1 <0>         0.0747
     56 H19         8.3441   -7.4862   11.4031 H         1 <0>         0.0692
     57 H20         8.5069   -9.5700   11.4463 H         1 <0>         0.1257
     58 H21         9.7713  -11.6777   11.5759 H         1 <0>         0.1248
     59 H22        10.8444  -12.3433   13.6888 H         1 <0>         0.1248
     60 H23        10.6549  -10.9043   15.6763 H         1 <0>         0.1299
     61 H24         8.4879   -8.8218   16.4722 H         1 <0>         0.0682
     62 H25        10.2598   -8.6580   16.5140 H         1 <0>         0.0656
     63 H26         9.2806   -7.4993   15.5829 H         1 <0>         0.0716
     64 H27         8.4450   -5.0816   11.8340 H         1 <0>         0.3784
     65 H28         4.7965   -1.5741    7.4643 H         1 <0>         0.1285
     66 H29         6.0959    0.3310    8.3198 H         1 <0>         0.1301
     67 H30         2.9623    2.9984    7.1941 H         1 <0>         0.1320
     68 H31         1.6522    1.1083    6.3213 H         1 <0>         0.1366
     69 H32         6.0343    3.3398    7.5369 H         1 <0>         0.0757
     70 H33         4.7298    3.7170    8.6876 H         1 <0>         0.0703
     71 H34         6.0369    2.6041    9.1578 H         1 <0>         0.0697
@<TRIPOS>BOND
     1    1    2 1
     2    1   39 1
     3    1   40 1
     4    1   41 1
     5    2    3 1
     6    2   42 1
     7    2   43 1
     8    3    4 1
     9    4    5 1
    10    4   44 1
    11    4   45 1
    12    5    6 1
    13    5   46 1
    14    5   47 1
    15    6    7 1
    16    7   11 2
    17    7    8 1
    18    8    9 2
    19    9   10 1
    20    9   32 1
    21   10   11 1
    22   10   12 1
    23   12   17 ar
    24   12   13 ar
    25   13   14 ar
    26   13   48 1
    27   14   15 ar
    28   14   49 1
    29   15   16 ar
    30   15   18 1
    31   16   17 ar
    32   16   50 1
    33   17   51 1
    34   18   19 1
    35   18   52 1
    36   19   20 1
    37   19   53 1
    38   19   54 1
    39   20   21 1
    40   20   22 1
    41   20   31 1
    42   22   23 1
    43   22   55 1
    44   22   56 1
    45   23   24 1
    46   24   29 ar
    47   24   25 ar
    48   25   26 ar
    49   25   57 1
    50   26   27 ar
    51   26   58 1
    52   27   28 ar
    53   27   59 1
    54   28   29 ar
    55   28   60 1
    56   29   30 1
    57   30   61 1
    58   30   62 1
    59   30   63 1
    60   31   64 1
    61   32   37 ar
    62   32   33 ar
    63   33   34 ar
    64   33   65 1
    65   34   35 ar
    66   34   66 1
    67   35   36 ar
    68   35   38 1
    69   36   37 ar
    70   36   67 1
    71   37   68 1
    72   38   69 1
    73   38   70 1
    74   38   71 1
