@<TRIPOS>MOLECULE
ZINC22912763
   56    58     0     0     0
SMALL
USER_CHARGES
4-[[(2R)-2-(2-chloro-6-fluoro-phenyl)-2-dimethylamino-ethyl]amino]-1-phenyl-cyclohexane-1-carbonitrile
@<TRIPOS>ATOM
      1 C1          5.0530    3.7616    3.6638 C.3       1 <0>        -0.0066
      2 N1          6.1208    2.8999    4.1883 N.3       1 <0>        -0.5397
      3 C2          6.9516    3.6235    5.1600 C.3       1 <0>         0.0111
      4 C3          5.5661    1.6747    4.7791 C.3       1 <0>         0.1015
      5 H1          4.6509    1.9508    5.3233 H         1 <0>         0.0883
      6 C4          5.2606    0.6665    3.6695 C.3       1 <0>         0.0064
      7 N2          4.3970    1.2950    2.6610 N.4       1 <0>        -0.5440
      8 C5          3.9248    0.3065    1.6824 C.3       1 <0>         0.0312
      9 C6          3.5868    1.0118    0.3674 C.3       1 <0>        -0.1482
     10 C7          2.4903    2.0503    0.6129 C.3       1 <0>        -0.1303
     11 C8          1.2402    1.3538    1.1541 C.3       1 <0>         0.0926
     12 C9          1.5782    0.6484    2.4691 C.3       1 <0>        -0.1208
     13 C10         2.6747   -0.3901    2.2236 C.3       1 <0>        -0.1500
     14 C11         0.7671    0.3632    0.1735 C.1       1 <0>         0.1965
     15 N3          0.4019   -0.4013   -0.5833 N.1       1 <0>        -0.3921
     16 C12         0.1602    2.3766    1.3960 C.ar      1 <0>        -0.1025
     17 C13        -1.0693    1.9804    1.8881 C.ar      1 <0>        -0.1045
     18 C14        -2.0617    2.9180    2.1049 C.ar      1 <0>        -0.1104
     19 C15        -1.8214    4.2530    1.8387 C.ar      1 <0>        -0.1030
     20 C16        -0.5916    4.6493    1.3475 C.ar      1 <0>        -0.1133
     21 C17         0.3992    3.7111    1.1261 C.ar      1 <0>        -0.1116
     22 C18         6.5674    1.0805    5.7359 C.ar      1 <0>        -0.1393
     23 C19         6.1692    0.6968    7.0053 C.ar      1 <0>         0.1280
     24 C20         7.0900    0.1511    7.8834 C.ar      1 <0>        -0.1435
     25 C21         8.4060   -0.0104    7.4927 C.ar      1 <0>        -0.0568
     26 C22         8.8036    0.3730    6.2258 C.ar      1 <0>        -0.1176
     27 C23         7.8831    0.9129    5.3447 C.ar      1 <0>         0.0037
     28 Cl1         8.3819    1.3869    3.7509 Cl        1 <0>        -0.0267
     29 F1          4.8829    0.8553    7.3870 F         1 <0>        -0.1270
     30 H2          4.4476    3.1960    2.9402 H         1 <0>         0.0451
     31 H3          5.4984    4.6353    3.1656 H         1 <0>         0.1027
     32 H4          4.4134    4.0987    4.4928 H         1 <0>         0.0557
     33 H5          7.7413    2.9564    5.5359 H         1 <0>         0.0849
     34 H6          6.3253    3.9597    5.9995 H         1 <0>         0.0384
     35 H7          7.4103    4.4963    4.6722 H         1 <0>         0.0863
     36 H8          6.2007    0.3443    3.1978 H         1 <0>         0.1407
     37 H9          4.7476   -0.2068    4.0986 H         1 <0>         0.1342
     38 H10         3.5243    1.7464    3.1556 H         1 <0>         0.4356
     39 H11         4.7374   -0.4197    1.5333 H         1 <0>         0.1421
     40 H12         4.4856    1.5125   -0.0217 H         1 <0>         0.1036
     41 H13         3.2333    0.2715   -0.3654 H         1 <0>         0.1127
     42 H14         2.8439    2.7906    1.3457 H         1 <0>         0.0843
     43 H15         2.2472    2.5574   -0.3325 H         1 <0>         0.1089
     44 H16         1.9317    1.3887    3.2019 H         1 <0>         0.0803
     45 H17         0.6794    0.1476    2.8582 H         1 <0>         0.1088
     46 H18         2.3212   -1.1304    1.4908 H         1 <0>         0.1126
     47 H19         2.9178   -0.8972    3.1690 H         1 <0>         0.1002
     48 H20        -1.2560    0.9378    2.0990 H         1 <0>         0.1225
     49 H21        -3.0238    2.6078    2.4852 H         1 <0>         0.1300
     50 H22        -2.5956    4.9859    2.0114 H         1 <0>         0.1298
     51 H23        -0.4050    5.6919    1.1363 H         1 <0>         0.1302
     52 H24         1.3599    4.0207    0.7419 H         1 <0>         0.1296
     53 H25         6.7802   -0.1480    8.8738 H         1 <0>         0.1513
     54 H26         9.1241   -0.4361    8.1779 H         1 <0>         0.1526
     55 H27         9.8321    0.2466    5.9216 H         1 <0>         0.1497
     56 H28         4.9616    2.0753    2.1297 H         1 <0>         0.4558
@<TRIPOS>BOND
     1    1    2 1
     2    1   30 1
     3    1   31 1
     4    1   32 1
     5    2    3 1
     6    2    4 1
     7    3   33 1
     8    3   34 1
     9    3   35 1
    10    4    5 1
    11    4    6 1
    12    4   22 1
    13    6    7 1
    14    6   36 1
    15    6   37 1
    16    7    8 1
    17    7   38 1
    18    7   56 1
    19    8   13 1
    20    8    9 1
    21    8   39 1
    22    9   10 1
    23    9   40 1
    24    9   41 1
    25   10   11 1
    26   10   42 1
    27   10   43 1
    28   11   12 1
    29   11   14 1
    30   11   16 1
    31   12   13 1
    32   12   44 1
    33   12   45 1
    34   13   46 1
    35   13   47 1
    36   14   15 3
    37   16   21 ar
    38   16   17 ar
    39   17   18 ar
    40   17   48 1
    41   18   19 ar
    42   18   49 1
    43   19   20 ar
    44   19   50 1
    45   20   21 ar
    46   20   51 1
    47   21   52 1
    48   22   27 ar
    49   22   23 ar
    50   23   24 ar
    51   23   29 1
    52   24   25 ar
    53   24   53 1
    54   25   26 ar
    55   25   54 1
    56   26   27 ar
    57   26   55 1
    58   27   28 1
