@<TRIPOS>MOLECULE
ZINC11181632
   45    48     0     0     0
SMALL
USER_CHARGES
N-[4-[5-(acetylaminomethyl)-2-thienyl]thiazol-2-yl]-6-bromo-2H-chromene-3-carboxamide
@<TRIPOS>ATOM
      1 C1         -7.5924  -13.6544    5.2146 C.3       1 <0>        -0.1730
      2 C2         -7.1644  -13.5264    3.7753 C.2       1 <0>         0.5119
      3 O1         -7.3502  -14.4433    3.0035 O.2       1 <0>        -0.5439
      4 N1         -6.5752  -12.3929    3.3458 N.am      1 <0>        -0.7306
      5 C3         -6.1592  -12.2684    1.9466 C.3       1 <0>         0.2056
      6 C4         -5.5323  -10.9156    1.7274 C.2       1 <0>        -0.1752
      7 C5         -4.2318  -10.5486    1.8488 C.2       1 <0>        -0.1273
      8 C6         -3.8757   -9.2415    1.5909 C.2       1 <0>        -0.1300
      9 C7         -4.8523   -8.3530    1.2295 C.2       1 <0>        -0.0821
     10 S1         -6.3097   -9.3842    1.2403 S.3       1 <0>         0.0912
     11 C8         -4.7309   -6.9148    0.9077 C.2       1 <0>         0.1548
     12 C9         -5.8365   -6.1878    0.5581 C.2       1 <0>        -0.2329
     13 S2         -5.1064   -4.5776    0.2922 S.3       1 <0>         0.1427
     14 C10        -3.4190   -5.0296    0.6694 C.2       1 <0>         0.3187
     15 N2         -3.5442   -6.3137    0.9485 N.2       1 <0>        -0.5247
     16 N3         -2.2774   -4.2403    0.6644 N.am      1 <0>        -0.6058
     17 C11        -2.3622   -2.9347    0.3411 C.2       1 <0>         0.5720
     18 O2         -3.4402   -2.4477    0.0535 O.2       1 <0>        -0.4935
     19 C12        -1.1599   -2.1034    0.3358 C.2       1 <0>        -0.2424
     20 C13        -1.2419   -0.7891    0.0109 C.2       1 <0>         0.0376
     21 C14         0.0021   -0.0041    0.0020 C.ar      1 <0>        -0.1550
     22 C15        -0.0168    1.3903    0.0097 C.ar      1 <0>        -0.0220
     23 C16         1.1751    2.0863    0.0020 C.ar      1 <0>        -0.1248
     24 C17         2.3831    1.4059   -0.0135 C.ar      1 <0>        -0.0359
     25 C18         2.4129    0.0238   -0.0213 C.ar      1 <0>        -0.1382
     26 C19         1.2285   -0.6909   -0.0141 C.ar      1 <0>         0.1610
     27 O3          1.2239   -2.0468   -0.0227 O.3       1 <0>        -0.2971
     28 C20         0.1757   -2.7026    0.6916 C.3       1 <0>         0.1086
     29 Br1         1.1605    3.9772    0.0116 Br        1 <0>        -0.0355
     30 H1         -8.6166  -13.2973    5.3223 H         1 <0>         0.0956
     31 H2         -7.5384  -14.6999    5.5180 H         1 <0>         0.0955
     32 H3         -6.9317  -13.0587    5.8445 H         1 <0>         0.0807
     33 H4         -6.4267  -11.6595    3.9630 H         1 <0>         0.4044
     34 H5         -7.0288  -12.3752    1.2981 H         1 <0>         0.0847
     35 H6         -5.4336  -13.0473    1.7126 H         1 <0>         0.0933
     36 H7         -3.4844  -11.2718    2.1398 H         1 <0>         0.1390
     37 H8         -2.8467   -8.9245    1.6750 H         1 <0>         0.1421
     38 H9         -6.8663   -6.5006    0.4675 H         1 <0>         0.2006
     39 H10        -1.4184   -4.6284    0.8935 H         1 <0>         0.4265
     40 H11        -2.1901   -0.3336   -0.2338 H         1 <0>         0.1586
     41 H12        -0.9571    1.9216    0.0170 H         1 <0>         0.1466
     42 H13         3.3095    1.9610   -0.0193 H         1 <0>         0.1468
     43 H14         3.3590   -0.4969   -0.0333 H         1 <0>         0.1497
     44 H15         0.3460   -2.5928    1.7626 H         1 <0>         0.0851
     45 H16         0.1745   -3.7624    0.4370 H         1 <0>         0.1165
@<TRIPOS>BOND
     1    1    2 1
     2    1   30 1
     3    1   31 1
     4    1   32 1
     5    2    3 2
     6    2    4 am
     7    4    5 1
     8    4   33 1
     9    5    6 1
    10    5   34 1
    11    5   35 1
    12    6   10 1
    13    6    7 2
    14    7    8 1
    15    7   36 1
    16    8    9 2
    17    8   37 1
    18    9   10 1
    19    9   11 1
    20   11   15 1
    21   11   12 2
    22   12   13 1
    23   12   38 1
    24   13   14 1
    25   14   15 2
    26   14   16 1
    27   16   17 am
    28   16   39 1
    29   17   18 2
    30   17   19 1
    31   19   28 1
    32   19   20 2
    33   20   21 1
    34   20   40 1
    35   21   26 ar
    36   21   22 ar
    37   22   23 ar
    38   22   41 1
    39   23   24 ar
    40   23   29 1
    41   24   25 ar
    42   24   42 1
    43   25   26 ar
    44   25   43 1
    45   26   27 1
    46   27   28 1
    47   28   44 1
    48   28   45 1
