@<TRIPOS>MOLECULE
ZINC49599380
   38    39     0     0     0
SMALL
USER_CHARGES

@<TRIPOS>ATOM
      1 C1          0.0900    1.3637    0.1970 C.3       1 <0>        -0.0532
      2 N1          0.0223   -0.0955    0.0419 N.4       1 <0>        -0.5079
      3 C2          0.5813   -0.4758   -1.2622 C.3       1 <0>         0.0797
      4 H1          0.0803    0.0866   -2.0502 H         1 <0>         0.1495
      5 C3          2.0789   -0.1634   -1.2859 C.3       1 <0>        -0.0852
      6 C4          2.6244   -0.4230   -2.6665 C.ar      1 <0>        -0.1426
      7 C5          3.2070   -1.6422   -2.9604 C.ar      1 <0>        -0.0415
      8 C6          3.7083   -1.8830   -4.2249 C.ar      1 <0>        -0.1994
      9 C7          3.6268   -0.9007   -5.2009 C.ar      1 <0>         0.1752
     10 C8          3.0413    0.3221   -4.9041 C.ar      1 <0>        -0.1292
     11 C9          2.5365    0.5560   -3.6386 C.ar      1 <0>        -0.0433
     12 Br1         2.9284    1.6645   -6.2311 Br        1 <0>        -0.0190
     13 O1          4.1198   -1.1352   -6.4456 O.3       1 <0>        -0.2968
     14 C10         4.7088   -2.4159   -6.6795 C.3       1 <0>         0.0212
     15 C11         0.3723   -1.9511   -1.4875 C.ar      1 <0>        -0.1348
     16 C12         0.5336   -2.8398   -0.4407 C.ar      1 <0>        -0.1100
     17 C13         0.3420   -4.1931   -0.6467 C.ar      1 <0>        -0.0966
     18 C14        -0.0110   -4.6586   -1.8995 C.ar      1 <0>        -0.0653
     19 C15        -0.1730   -3.7699   -2.9468 C.ar      1 <0>        -0.0832
     20 C16         0.0138   -2.4150   -2.7389 C.ar      1 <0>        -0.0531
     21 Br2        -0.6553   -4.4061   -4.6611 Br        1 <0>        -0.0182
     22 H2          1.1333    1.6776    0.2295 H         1 <0>         0.1270
     23 H3         -0.4073    1.8422   -0.6466 H         1 <0>         0.1269
     24 H4         -0.4057    1.6540    1.1234 H         1 <0>         0.1310
     25 H5          0.5539   -0.5369    0.7773 H         1 <0>         0.4271
     26 H6          2.2359    0.8830   -1.0241 H         1 <0>         0.1020
     27 H7          2.5941   -0.7993   -0.5661 H         1 <0>         0.0998
     28 H8          3.2704   -2.4069   -2.2003 H         1 <0>         0.1300
     29 H9          4.1638   -2.8353   -4.4533 H         1 <0>         0.1419
     30 H10         2.0771    1.5058   -3.4079 H         1 <0>         0.1394
     31 H11         5.5490   -2.5590   -6.0000 H         1 <0>         0.0622
     32 H12         3.9657   -3.1945   -6.5073 H         1 <0>         0.0618
     33 H13         5.0611   -2.4712   -7.7095 H         1 <0>         0.1116
     34 H14         0.8098   -2.4765    0.5382 H         1 <0>         0.1273
     35 H15         0.4685   -4.8869    0.1712 H         1 <0>         0.1452
     36 H16        -0.1600   -5.7161   -2.0606 H         1 <0>         0.1453
     37 H17        -0.1163   -1.7203   -3.5556 H         1 <0>         0.1409
     38 H18        -0.9396   -0.3952    0.0959 H         1 <0>         0.4341
@<TRIPOS>BOND
     1    1    2 1
     2    1   22 1
     3    1   23 1
     4    1   24 1
     5    2    3 1
     6    2   25 1
     7    2   38 1
     8    3    4 1
     9    3    5 1
    10    3   15 1
    11    5    6 1
    12    5   26 1
    13    5   27 1
    14    6   11 ar
    15    6    7 ar
    16    7    8 ar
    17    7   28 1
    18    8    9 ar
    19    8   29 1
    20    9   10 ar
    21    9   13 1
    22   10   11 ar
    23   10   12 1
    24   11   30 1
    25   13   14 1
    26   14   31 1
    27   14   32 1
    28   14   33 1
    29   15   20 ar
    30   15   16 ar
    31   16   17 ar
    32   16   34 1
    33   17   18 ar
    34   17   35 1
    35   18   19 ar
    36   18   36 1
    37   19   20 ar
    38   19   21 1
    39   20   37 1
