@<TRIPOS>MOLECULE
ZINC29862088
   48    49     0     0     0
SMALL
USER_CHARGES

@<TRIPOS>ATOM
      1 C1         -0.0421    1.4586    0.0120 C.3       1 <0>         0.0574
      2 N1         -0.0115   -0.0061    0.0030 N.am      1 <0>        -0.5861
      3 C2          0.0145   -0.7460    1.2671 C.3       1 <0>         0.1543
      4 C3         -1.3971   -1.0295    1.7123 C.ar      1 <0>        -0.1094
      5 C4         -2.0629   -0.1235    2.5170 C.ar      1 <0>        -0.0872
      6 C5         -3.3573   -0.3824    2.9263 C.ar      1 <0>        -0.0985
      7 C6         -3.9877   -1.5486    2.5306 C.ar      1 <0>        -0.0225
      8 C7         -3.3212   -2.4556    1.7245 C.ar      1 <0>        -0.0359
      9 C8         -2.0273   -2.1923    1.3114 C.ar      1 <0>        -0.0777
     10 Cl1        -4.1106   -3.9197    1.2275 Cl        1 <0>        -0.0367
     11 Cl2        -5.6134   -1.8747    3.0449 Cl        1 <0>        -0.0340
     12 C9         -0.0072   -0.6728   -1.1683 C.2       1 <0>         0.5010
     13 O1          0.0182   -1.8853   -1.1758 O.2       1 <0>        -0.5177
     14 C10        -0.0338    0.0884   -2.4687 C.3       1 <0>        -0.0316
     15 N2         -0.0232   -0.8593   -3.5911 N.4       1 <0>        -0.3598
     16 C11         1.2477   -1.5960   -3.5980 C.3       1 <0>        -0.0700
     17 C12        -0.1698   -0.1239   -4.8543 C.3       1 <0>        -0.0287
     18 C13        -0.2823   -1.1022   -5.9950 C.2       1 <0>         0.5005
     19 O2         -0.2441   -2.2948   -5.7771 O.2       1 <0>        -0.5013
     20 N3         -0.4253   -0.6521   -7.2573 N.am      1 <0>        -0.6432
     21 C14        -0.4325   -1.5556   -8.3257 C.ar      1 <0>         0.1293
     22 C15         0.1374   -1.2001   -9.5415 C.ar      1 <0>        -0.1268
     23 C16         0.1295   -2.0937  -10.5943 C.ar      1 <0>        -0.0843
     24 C17        -0.4456   -3.3418  -10.4398 C.ar      1 <0>        -0.1074
     25 C18        -1.0144   -3.6995   -9.2302 C.ar      1 <0>        -0.0197
     26 C19        -1.0043   -2.8111   -8.1709 C.ar      1 <0>        -0.1088
     27 Cl3        -1.7358   -5.2671   -9.0407 Cl        1 <0>        -0.0495
     28 H1          0.9777    1.8433    0.0058 H         1 <0>         0.0783
     29 H2         -0.5708    1.8164   -0.8714 H         1 <0>         0.0759
     30 H3         -0.5559    1.8057    0.9085 H         1 <0>         0.0920
     31 H4          0.5470   -1.6867    1.1267 H         1 <0>         0.1070
     32 H5          0.5222   -0.1509    2.0261 H         1 <0>         0.1075
     33 H6         -1.5711    0.7870    2.8261 H         1 <0>         0.1401
     34 H7         -3.8765    0.3254    3.5554 H         1 <0>         0.1483
     35 H8         -1.5082   -2.8975    0.6792 H         1 <0>         0.1471
     36 H9         -0.9372    0.6966   -2.5152 H         1 <0>         0.1614
     37 H10         0.8423    0.7339   -2.5299 H         1 <0>         0.1636
     38 H11         1.3564   -2.1416   -2.6607 H         1 <0>         0.1444
     39 H12         1.2555   -2.2991   -4.4308 H         1 <0>         0.1424
     40 H13         2.0741   -0.8937   -3.7076 H         1 <0>         0.1176
     41 H14        -1.0682    0.4920   -4.8140 H         1 <0>         0.1651
     42 H15         0.7011    0.5135   -5.0068 H         1 <0>         0.1670
     43 H16        -0.5232    0.2983   -7.4251 H         1 <0>         0.4228
     44 H17         0.5862   -0.2253   -9.6634 H         1 <0>         0.1372
     45 H18         0.5726   -1.8173  -11.5396 H         1 <0>         0.1452
     46 H19        -0.4511   -4.0385  -11.2650 H         1 <0>         0.1428
     47 H20        -1.4443   -3.0920   -7.2254 H         1 <0>         0.1491
     48 H21        -0.7882   -1.5094   -3.4896 H         1 <0>         0.4394
@<TRIPOS>BOND
     1    1    2 1
     2    1   28 1
     3    1   29 1
     4    1   30 1
     5    2    3 1
     6    2   12 am
     7    3    4 1
     8    3   31 1
     9    3   32 1
    10    4    9 ar
    11    4    5 ar
    12    5    6 ar
    13    5   33 1
    14    6    7 ar
    15    6   34 1
    16    7    8 ar
    17    7   11 1
    18    8    9 ar
    19    8   10 1
    20    9   35 1
    21   12   13 2
    22   12   14 1
    23   14   15 1
    24   14   36 1
    25   14   37 1
    26   15   16 1
    27   15   17 1
    28   15   48 1
    29   16   38 1
    30   16   39 1
    31   16   40 1
    32   17   18 1
    33   17   41 1
    34   17   42 1
    35   18   19 2
    36   18   20 am
    37   20   21 1
    38   20   43 1
    39   21   26 ar
    40   21   22 ar
    41   22   23 ar
    42   22   44 1
    43   23   24 ar
    44   23   45 1
    45   24   25 ar
    46   24   46 1
    47   25   26 ar
    48   25   27 1
    49   26   47 1
