@<TRIPOS>MOLECULE
ZINC16524692
   55    61     0     0     0
SMALL
USER_CHARGES
(E)-(4-chlorophenyl)-(1H-indol-3-ylmethylene)BLAHone
@<TRIPOS>ATOM
      1 C1         13.1157   -2.7737   -0.9307 C.ar      1 <0>        -0.1067
      2 C2         11.9512   -3.4615   -1.2224 C.ar      1 <0>        -0.1273
      3 C3         10.7268   -2.8345   -1.1020 C.ar      1 <0>        -0.0787
      4 C4         10.6704   -1.5080   -0.6845 C.ar      1 <0>        -0.0388
      5 C5         11.8444   -0.8228   -0.3805 C.ar      1 <0>        -0.0667
      6 C6         13.0629   -1.4564   -0.5109 C.ar      1 <0>        -0.1197
      7 C7         11.7718    0.6035    0.0978 C.3       1 <0>        -0.0790
      8 C8         10.6223    1.3315   -0.5945 C.3       1 <0>        -0.0594
      9 C9          9.3514    0.5353   -0.5038 C.2       1 <0>        -0.1609
     10 C10         9.3676   -0.8085   -0.5596 C.2       1 <0>         0.1462
     11 N1          8.2062   -1.5126   -0.5134 N.2       1 <0>        -0.4842
     12 C11         7.0302   -0.9784   -0.3925 C.2       1 <0>         0.3693
     13 N2          6.8038    0.3828   -0.2971 N.am      1 <0>        -0.5854
     14 C12         5.5397    0.8032   -0.1755 C.2       1 <0>         0.5550
     15 O1          5.2932    1.9928   -0.0884 O.2       1 <0>        -0.4817
     16 C13         4.4873   -0.1516   -0.1441 C.2       1 <0>        -0.2612
     17 C14         3.1457    0.0469   -0.0274 C.2       1 <0>         0.1460
     18 C15         2.6257    1.3861    0.2513 C.2       1 <0>        -0.2073
     19 C16         3.1593    2.3095    1.1059 C.2       1 <0>         0.1681
     20 N3          2.3969    3.4335    1.0984 N.pl3     1 <0>        -0.5798
     21 H1          2.5765    4.2276    1.6257 H         1 <0>         0.4208
     22 C17         1.3312    3.2864    0.2345 C.ar      1 <0>         0.0847
     23 C18         1.4218    2.0057   -0.3344 C.ar      1 <0>        -0.0702
     24 C19         0.4668    1.5810   -1.2540 C.ar      1 <0>        -0.0816
     25 C20        -0.5636    2.4254   -1.6069 C.ar      1 <0>        -0.1327
     26 C21        -0.6571    3.6891   -1.0428 C.ar      1 <0>        -0.1030
     27 C22         0.2810    4.1220   -0.1307 C.ar      1 <0>        -0.1204
     28 S1          5.3953   -1.6812   -0.3066 S.3       1 <0>         0.0890
     29 C23         8.0226    1.2360   -0.3497 C.3       1 <0>         0.2332
     30 H2          8.0590    1.8248    0.5669 H         1 <0>         0.0970
     31 C24         7.8674    2.1930   -1.5034 C.ar      1 <0>        -0.0889
     32 C25         7.4665    1.7243   -2.7406 C.ar      1 <0>        -0.0865
     33 C26         7.3185    2.6024   -3.7977 C.ar      1 <0>        -0.1049
     34 C27         7.5826    3.9489   -3.6204 C.ar      1 <0>        -0.0272
     35 C28         7.9892    4.4164   -2.3834 C.ar      1 <0>        -0.1059
     36 C29         8.1314    3.5382   -1.3256 C.ar      1 <0>        -0.0831
     37 Cl1         7.4043    5.0512   -4.9496 Cl        1 <0>        -0.0660
     38 H3         14.0708   -3.2676   -1.0315 H         1 <0>         0.1247
     39 H4         12.0000   -4.4910   -1.5449 H         1 <0>         0.1260
     40 H5          9.8176   -3.3708   -1.3303 H         1 <0>         0.1330
     41 H6         13.9753   -0.9242   -0.2857 H         1 <0>         0.1269
     42 H7         11.6101    0.6155    1.1756 H         1 <0>         0.0815
     43 H8         12.7089    1.1102   -0.1328 H         1 <0>         0.0876
     44 H9         10.4729    2.3003   -0.1179 H         1 <0>         0.0821
     45 H10        10.8748    1.4836   -1.6439 H         1 <0>         0.0843
     46 H11         2.4650   -0.7839   -0.1405 H         1 <0>         0.1534
     47 H12         4.0512    2.1668    1.6979 H         1 <0>         0.1753
     48 H13         0.5355    0.5962   -1.6921 H         1 <0>         0.1246
     49 H14        -1.3034    2.1005   -2.3235 H         1 <0>         0.1262
     50 H15        -1.4707    4.3414   -1.3237 H         1 <0>         0.1277
     51 H16         0.2005    5.1090    0.3003 H         1 <0>         0.1219
     52 H17         7.2647    0.6726   -2.8801 H         1 <0>         0.1197
     53 H18         7.0010    2.2368   -4.7631 H         1 <0>         0.1345
     54 H19         8.1958    5.4673   -2.2444 H         1 <0>         0.1364
     55 H20         8.4492    3.9030   -0.3600 H         1 <0>         0.1322
@<TRIPOS>BOND
     1    1    6 ar
     2    1    2 ar
     3    1   38 1
     4    2    3 ar
     5    2   39 1
     6    3    4 ar
     7    3   40 1
     8    4   10 1
     9    4    5 ar
    10    5    6 ar
    11    5    7 1
    12    6   41 1
    13    7    8 1
    14    7   42 1
    15    7   43 1
    16    8    9 1
    17    8   44 1
    18    8   45 1
    19    9   29 1
    20    9   10 2
    21   10   11 1
    22   11   12 2
    23   12   28 1
    24   12   13 1
    25   13   14 am
    26   13   29 1
    27   14   15 2
    28   14   16 1
    29   16   17 2
    30   16   28 1
    31   17   18 1
    32   17   46 1
    33   18   23 1
    34   18   19 2
    35   19   20 1
    36   19   47 1
    37   20   21 1
    38   20   22 1
    39   22   27 ar
    40   22   23 ar
    41   23   24 ar
    42   24   25 ar
    43   24   48 1
    44   25   26 ar
    45   25   49 1
    46   26   27 ar
    47   26   50 1
    48   27   51 1
    49   29   30 1
    50   29   31 1
    51   31   36 ar
    52   31   32 ar
    53   32   33 ar
    54   32   52 1
    55   33   34 ar
    56   33   53 1
    57   34   35 ar
    58   34   37 1
    59   35   36 ar
    60   35   54 1
    61   36   55 1
