@<TRIPOS>MOLECULE
ZINC10129449
   67    70     0     0     0
SMALL
USER_CHARGES
N'-benzyl-N-[2-(3,4-dihydro-1H-isoquinolin-2-yl)-2-(4-dimethylaminophenyl)-ethyl]-oxamide
@<TRIPOS>ATOM
      1 C1         -7.2708    2.2014   -1.8344 C.3       1 <0>         0.0816
      2 N1         -6.3840    1.1053   -1.4364 N.pl3     1 <0>        -0.6234
      3 C2         -6.9437   -0.2098   -1.1146 C.3       1 <0>         0.0823
      4 C3         -5.0048    1.3141   -1.3638 C.ar      1 <0>         0.2451
      5 C4         -4.4725    2.5604   -1.6686 C.ar      1 <0>        -0.1868
      6 C5         -3.1083    2.7633   -1.5962 C.ar      1 <0>        -0.0303
      7 C6         -2.2726    1.7275   -1.2209 C.ar      1 <0>        -0.2096
      8 C7         -2.7987    0.4840   -0.9222 C.ar      1 <0>        -0.0809
      9 C8         -4.1625    0.2758   -0.9871 C.ar      1 <0>        -0.1839
     10 C9         -0.7846    1.9526   -1.1430 C.3       1 <0>         0.0881
     11 H1         -0.5874    2.9267   -0.6953 H         1 <0>         0.1510
     12 C10        -0.1877    1.9083   -2.5511 C.3       1 <0>         0.0963
     13 N2          1.2496    2.1830   -2.4810 N.am      1 <0>        -0.7294
     14 C11         2.0151    2.0526   -3.5827 C.2       1 <0>         0.5122
     15 O1          1.5137    1.7077   -4.6325 O.2       1 <0>        -0.4902
     16 C12         3.4813    2.3329   -3.5112 C.2       1 <0>         0.5053
     17 O2          3.9827    2.6779   -2.4614 O.2       1 <0>        -0.5190
     18 N3          4.2468    2.2025   -4.6129 N.am      1 <0>        -0.6863
     19 C13         5.6841    2.4773   -4.5428 C.3       1 <0>         0.1608
     20 C14         6.3039    2.2589   -5.8990 C.ar      1 <0>        -0.1237
     21 C15         6.7988    1.0142   -6.2405 C.ar      1 <0>        -0.0981
     22 C16         7.3629    0.8127   -7.4863 C.ar      1 <0>        -0.1203
     23 C17         7.4413    1.8585   -8.3869 C.ar      1 <0>        -0.1034
     24 C18         6.9516    3.1047   -8.0433 C.ar      1 <0>        -0.1195
     25 C19         6.3827    3.3048   -6.7995 C.ar      1 <0>        -0.0975
     26 C20         1.0346    1.3997    0.3596 C.3       1 <0>        -0.0114
     27 C21         1.4124    0.4129    1.4646 C.3       1 <0>        -0.1042
     28 C22         1.4575   -0.9878    0.9097 C.ar      1 <0>        -0.0899
     29 C23         2.1118   -1.9679    1.6408 C.ar      1 <0>        -0.1031
     30 C24         2.1690   -3.2653    1.1730 C.ar      1 <0>        -0.0926
     31 C25         1.5713   -3.5892   -0.0309 C.ar      1 <0>        -0.1040
     32 C26         0.9219   -2.6140   -0.7603 C.ar      1 <0>        -0.0940
     33 C27         0.8644   -1.3093   -0.2922 C.ar      1 <0>        -0.1308
     34 C28         0.1483   -0.2792   -1.1258 C.3       1 <0>         0.0315
     35 H2         -7.3964    2.1923   -2.9171 H         1 <0>         0.0595
     36 H3         -8.2416    2.0756   -1.3550 H         1 <0>         0.0770
     37 H4         -6.8343    3.1517   -1.5273 H         1 <0>         0.0739
     38 H5         -7.1768   -0.2550   -0.0508 H         1 <0>         0.0586
     39 H6         -7.8537   -0.3688   -1.6931 H         1 <0>         0.0773
     40 H7         -6.2169   -0.9840   -1.3605 H         1 <0>         0.0723
     41 H8         -5.1246    3.3699   -1.9615 H         1 <0>         0.1368
     42 H9         -2.6937    3.7320   -1.8334 H         1 <0>         0.1339
     43 H10        -2.1428   -0.3242   -0.6340 H         1 <0>         0.1174
     44 H11        -4.5731   -0.6944   -0.7494 H         1 <0>         0.1349
     45 H12        -0.3481    0.9203   -2.9828 H         1 <0>         0.1059
     46 H13        -0.6714    2.6602   -3.1746 H         1 <0>         0.1202
     47 H14         1.6504    2.4588   -1.6418 H         1 <0>         0.4105
     48 H15         3.8460    1.9268   -5.4521 H         1 <0>         0.4169
     49 H16         5.8419    3.5104   -4.2333 H         1 <0>         0.0873
     50 H17         6.1474    1.8065   -3.8194 H         1 <0>         0.0864
     51 H18         6.7413    0.1982   -5.5353 H         1 <0>         0.1239
     52 H19         7.7459   -0.1608   -7.7546 H         1 <0>         0.1275
     53 H20         7.8855    1.7020   -9.3588 H         1 <0>         0.1276
     54 H21         7.0131    3.9218   -8.7468 H         1 <0>         0.1280
     55 H22         6.0000    4.2785   -6.5310 H         1 <0>         0.1250
     56 H23         1.8519    1.4767   -0.3575 H         1 <0>         0.1326
     57 H24         0.8327    2.3781    0.7956 H         1 <0>         0.1430
     58 H25         0.6717    0.4622    2.2627 H         1 <0>         0.1062
     59 H26         2.3922    0.6759    1.8633 H         1 <0>         0.1262
     60 H27         2.5787   -1.7149    2.5812 H         1 <0>         0.1355
     61 H28         2.6796   -4.0254    1.7457 H         1 <0>         0.1366
     62 H29         1.6122   -4.6035   -0.3997 H         1 <0>         0.1370
     63 H30         0.4558   -2.8679   -1.7009 H         1 <0>         0.1334
     64 H31        -0.7739   -0.7100   -1.5158 H         1 <0>         0.1421
     65 H32         0.7871    0.0167   -1.9580 H         1 <0>         0.1425
     66 N4         -0.1859    0.8932   -0.2999 N.4       1 <0>        -0.3915
     67 H33        -0.8644    0.6149    0.4187 H         1 <0>         0.4338
@<TRIPOS>BOND
     1    1    2 1
     2    1   35 1
     3    1   36 1
     4    1   37 1
     5    2    3 1
     6    2    4 1
     7    3   38 1
     8    3   39 1
     9    3   40 1
    10    4    9 ar
    11    4    5 ar
    12    5    6 ar
    13    5   41 1
    14    6    7 ar
    15    6   42 1
    16    7    8 ar
    17    7   10 1
    18    8    9 ar
    19    8   43 1
    20    9   44 1
    21   10   11 1
    22   10   12 1
    23   10   66 1
    24   12   13 1
    25   12   45 1
    26   12   46 1
    27   13   14 am
    28   13   47 1
    29   14   15 2
    30   14   16 1
    31   16   17 2
    32   16   18 am
    33   18   19 1
    34   18   48 1
    35   19   20 1
    36   19   49 1
    37   19   50 1
    38   20   25 ar
    39   20   21 ar
    40   21   22 ar
    41   21   51 1
    42   22   23 ar
    43   22   52 1
    44   23   24 ar
    45   23   53 1
    46   24   25 ar
    47   24   54 1
    48   25   55 1
    49   26   27 1
    50   26   56 1
    51   26   57 1
    52   26   66 1
    53   27   28 1
    54   27   58 1
    55   27   59 1
    56   28   33 ar
    57   28   29 ar
    58   29   30 ar
    59   29   60 1
    60   30   31 ar
    61   30   61 1
    62   31   32 ar
    63   31   62 1
    64   32   33 ar
    65   32   63 1
    66   33   34 1
    67   34   64 1
    68   34   65 1
    69   34   66 1
    70   66   67 1
