@<TRIPOS>MOLECULE
ZINC63697909
   55    59     0     0     0
SMALL
USER_CHARGES

@<TRIPOS>ATOM
      1 C1         -0.3011    1.1109   -0.0937 C.ar      1 <0>        -0.1494
      2 C2          0.8331    1.9335   -0.0520 C.ar      1 <0>         0.0568
      3 C3          2.0890    1.4400   -0.0231 C.ar      1 <0>        -0.2079
      4 C4          2.3125    0.0365   -0.0345 C.ar      1 <0>         0.3386
      5 N1          3.4193   -0.6714   -0.0331 N.pl3     1 <0>        -0.5742
      6 C5          3.0647   -2.0873    0.0277 C.3       1 <0>         0.0849
      7 H1          3.3830   -2.5218    0.9753 H         1 <0>         0.1814
      8 C6          3.6513   -2.8745   -1.1498 C.3       1 <0>         0.2003
      9 H2          4.7123   -3.0570   -0.9795 H         1 <0>         0.1452
     10 N2          2.9337   -4.1558   -1.2385 N.am      1 <0>        -0.6105
     11 C7          1.4827   -4.1859   -1.4516 C.3       1 <0>         0.0894
     12 C8          0.7851   -3.4149   -0.3159 C.3       1 <0>        -0.1067
     13 C9          1.5510   -2.1295   -0.0995 C.2       1 <0>         0.0645
     14 C10         1.1291   -0.8571   -0.0851 C.ar      1 <0>        -0.1617
     15 C11        -0.2019   -0.2371   -0.1106 C.ar      1 <0>        -0.0115
     16 C12         3.6158   -5.3125   -1.1234 C.2       1 <0>         0.5423
     17 O1          4.8156   -5.2940   -0.9475 O.2       1 <0>        -0.4876
     18 C13         2.8876   -6.6288   -1.2132 C.3       1 <0>        -0.1416
     19 S1          4.0720   -7.9893   -1.0217 S.3       1 <0>        -0.1640
     20 C14         3.0501   -9.4824   -1.1523 C.3       1 <0>        -0.0589
     21 C15         3.9227  -10.7026   -1.0084 C.ar      1 <0>        -0.0950
     22 C16         4.5013  -11.2738   -2.1265 C.ar      1 <0>        -0.0685
     23 C17         5.3021  -12.3925   -1.9957 C.ar      1 <0>        -0.1530
     24 C18         5.5249  -12.9411   -0.7441 C.ar      1 <0>         0.1121
     25 C19         4.9450  -12.3682    0.3750 C.ar      1 <0>        -0.1535
     26 C20         4.1488  -11.2464    0.2423 C.ar      1 <0>        -0.0689
     27 F1          6.3072  -14.0350   -0.6151 F         1 <0>        -0.1341
     28 C21         3.4664   -2.0956   -2.4266 C.ar      1 <0>        -0.1292
     29 C22         2.1942   -1.7741   -2.8618 C.ar      1 <0>        -0.1145
     30 C23         2.0240   -1.0598   -4.0327 C.ar      1 <0>        -0.1032
     31 C24         3.1271   -0.6665   -4.7693 C.ar      1 <0>        -0.0180
     32 C25         4.4000   -0.9885   -4.3333 C.ar      1 <0>        -0.1003
     33 C26         4.5692   -1.6980   -3.1593 C.ar      1 <0>        -0.0791
     34 Cl1         2.9141    0.2303   -6.2404 Cl        1 <0>        -0.0433
     35 H3         -1.2804    1.5662   -0.1082 H         1 <0>         0.1588
     36 H4          0.6966    3.0048   -0.0430 H         1 <0>         0.1616
     37 H5          2.9303    2.1165    0.0085 H         1 <0>         0.1606
     38 H6          1.2456   -3.7189   -2.4076 H         1 <0>         0.1007
     39 H7          1.1370   -5.2196   -1.4555 H         1 <0>         0.1216
     40 H8         -0.2458   -3.1947   -0.5932 H         1 <0>         0.1278
     41 H9          0.8082   -4.0019    0.6022 H         1 <0>         0.1302
     42 H10        -1.0903   -0.8504   -0.1431 H         1 <0>         0.1617
     43 H11         2.1391   -6.6846   -0.4228 H         1 <0>         0.1173
     44 H12         2.3976   -6.7075   -2.1837 H         1 <0>         0.1179
     45 H13         2.2982   -9.4783   -0.3631 H         1 <0>         0.0950
     46 H14         2.5567   -9.5012   -2.1241 H         1 <0>         0.0953
     47 H15         4.3270  -10.8458   -3.1027 H         1 <0>         0.1357
     48 H16         5.7536  -12.8387   -2.8694 H         1 <0>         0.1408
     49 H17         5.1179  -12.7955    1.3517 H         1 <0>         0.1406
     50 H18         3.6999  -10.7967    1.1157 H         1 <0>         0.1354
     51 H19         1.3332   -2.0815   -2.2868 H         1 <0>         0.1336
     52 H20         1.0301   -0.8090   -4.3727 H         1 <0>         0.1421
     53 H21         5.2615   -0.6820   -4.9081 H         1 <0>         0.1458
     54 H22         5.5630   -1.9454   -2.8163 H         1 <0>         0.1414
     55 H23         4.3204   -0.3140   -0.0667 H         1 <0>         0.4551
@<TRIPOS>BOND
     1    1   15 ar
     2    1    2 ar
     3    1   35 1
     4    2    3 ar
     5    2   36 1
     6    3    4 ar
     7    3   37 1
     8    4   14 ar
     9    4    5 2
    10    5    6 1
    11    5   55 1
    12    6    7 1
    13    6   13 1
    14    6    8 1
    15    8    9 1
    16    8   10 1
    17    8   28 1
    18   10   11 1
    19   10   16 am
    20   11   12 1
    21   11   38 1
    22   11   39 1
    23   12   13 1
    24   12   40 1
    25   12   41 1
    26   13   14 2
    27   14   15 ar
    28   15   42 1
    29   16   17 2
    30   16   18 1
    31   18   19 1
    32   18   43 1
    33   18   44 1
    34   19   20 1
    35   20   21 1
    36   20   45 1
    37   20   46 1
    38   21   26 ar
    39   21   22 ar
    40   22   23 ar
    41   22   47 1
    42   23   24 ar
    43   23   48 1
    44   24   25 ar
    45   24   27 1
    46   25   26 ar
    47   25   49 1
    48   26   50 1
    49   28   33 ar
    50   28   29 ar
    51   29   30 ar
    52   29   51 1
    53   30   31 ar
    54   30   52 1
    55   31   32 ar
    56   31   34 1
    57   32   33 ar
    58   32   53 1
    59   33   54 1
