@<TRIPOS>MOLECULE
ZINC02073835
   56    59     0     0     0
SMALL
USER_CHARGES
7-[(4-ethoxy-3-methyl-phenyl)-[(4-methyl-2-pyridyl)amino]methyl]quinolin-8-ol
@<TRIPOS>ATOM
      1 C1          2.1309    3.3144    0.2807 C.3       1 <0>        -0.1555
      2 C2          2.1289    1.7888    0.1648 C.3       1 <0>         0.0532
      3 O1          0.7934    1.3017    0.3115 O.3       1 <0>        -0.3064
      4 C3          0.6152   -0.0433    0.2336 C.ar      1 <0>         0.1508
      5 C4          1.7026   -0.8769    0.0147 C.ar      1 <0>        -0.2000
      6 C5          1.5197   -2.2440   -0.0579 C.ar      1 <0>        -0.0728
      7 C6          0.2524   -2.7812    0.0751 C.ar      1 <0>        -0.1488
      8 C7         -0.8334   -1.9524    0.2876 C.ar      1 <0>        -0.0639
      9 C8         -0.6549   -0.5846    0.3671 C.ar      1 <0>        -0.1051
     10 C9         -1.8391    0.3183    0.5982 C.3       1 <0>        -0.1128
     11 C10         0.0548   -4.2727   -0.0112 C.3       1 <0>         0.2450
     12 H1         -0.9404   -4.5290    0.3522 H         1 <0>         0.1217
     13 C11         0.1957   -4.7160   -1.4446 C.ar      1 <0>        -0.1319
     14 C12         1.4278   -5.1756   -1.9022 C.ar      1 <0>        -0.1023
     15 C13         1.5865   -5.5891   -3.1898 C.ar      1 <0>        -0.0907
     16 C14         0.4978   -5.5416   -4.0758 C.ar      1 <0>        -0.0881
     17 C15         0.6249   -5.9547   -5.4156 C.ar      1 <0>        -0.0606
     18 C16        -0.4765   -5.8811   -6.2198 C.ar      1 <0>        -0.1591
     19 C17        -1.6818   -5.4068   -5.7061 C.ar      1 <0>         0.1394
     20 N1         -1.7959   -5.0235   -4.4577 N.ar      1 <0>        -0.4598
     21 C18        -0.7571   -5.0699   -3.6190 C.ar      1 <0>         0.1048
     22 C19        -0.8857   -4.6556   -2.2765 C.ar      1 <0>         0.1645
     23 O2         -2.0787   -4.1996   -1.8138 O.3       1 <0>        -0.4793
     24 N2          1.0632   -4.9473    0.8099 N.pl3     1 <0>        -0.6951
     25 C20         0.8323   -6.2371    1.2738 C.ar      1 <0>         0.4612
     26 C21        -0.3951   -6.8468    1.0337 C.ar      1 <0>        -0.2048
     27 C22        -0.6112   -8.1304    1.5010 C.ar      1 <0>         0.0853
     28 C23         0.4111   -8.7639    2.1954 C.ar      1 <0>        -0.1726
     29 C24         1.6039   -8.0995    2.3976 C.ar      1 <0>         0.1553
     30 C25        -1.9263   -8.8262    1.2615 C.3       1 <0>        -0.1446
     31 H2          1.7433    3.6051    1.2571 H         1 <0>         0.0692
     32 H3          3.1496    3.6859    0.1688 H         1 <0>         0.0830
     33 H4          1.5014    3.7390   -0.5013 H         1 <0>         0.0696
     34 H5          2.7584    1.3641    0.9468 H         1 <0>         0.0639
     35 H6          2.5165    1.4980   -0.8116 H         1 <0>         0.0646
     36 H7          2.6918   -0.4574   -0.0944 H         1 <0>         0.1345
     37 H8          2.3664   -2.8936   -0.2234 H         1 <0>         0.1195
     38 H9         -1.8221   -2.3744    0.3918 H         1 <0>         0.1383
     39 H10        -2.2641    0.6129   -0.3613 H         1 <0>         0.0752
     40 H11        -2.5918   -0.2118    1.1816 H         1 <0>         0.0704
     41 H12        -1.5178    1.2070    1.1415 H         1 <0>         0.0753
     42 H13         2.2684   -5.2091   -1.2248 H         1 <0>         0.1206
     43 H14         2.5470   -5.9474   -3.5298 H         1 <0>         0.1361
     44 H15         1.5672   -6.3194   -5.7970 H         1 <0>         0.1451
     45 H16        -0.4133   -6.1897   -7.2528 H         1 <0>         0.1464
     46 H17        -2.5447   -5.3540   -6.3533 H         1 <0>         0.1679
     47 H18        -2.1997   -3.2452   -1.9118 H         1 <0>         0.3986
     48 H19         1.8920   -4.4938    1.0299 H         1 <0>         0.4177
     49 H20        -1.1686   -6.3247    0.4901 H         1 <0>         0.1796
     50 H21         0.2741   -9.7662    2.5737 H         1 <0>         0.1821
     51 H22         2.4016   -8.5884    2.9372 H         1 <0>         0.1952
     52 H23        -1.8805   -9.3763    0.3216 H         1 <0>         0.1066
     53 H24        -2.1247   -9.5195    2.0789 H         1 <0>         0.0962
     54 H25        -2.7250   -8.0862    1.2109 H         1 <0>         0.0940
     55 N3          1.8535   -6.8406    1.9478 N.ar      1 <0>        -0.5426
     56 H26         2.7542   -6.3736    2.1055 H         1 <0>         0.4662
@<TRIPOS>BOND
     1    1    2 1
     2    1   31 1
     3    1   32 1
     4    1   33 1
     5    2    3 1
     6    2   34 1
     7    2   35 1
     8    3    4 1
     9    4    9 ar
    10    4    5 ar
    11    5    6 ar
    12    5   36 1
    13    6    7 ar
    14    6   37 1
    15    7    8 ar
    16    7   11 1
    17    8    9 ar
    18    8   38 1
    19    9   10 1
    20   10   39 1
    21   10   40 1
    22   10   41 1
    23   11   12 1
    24   11   13 1
    25   11   24 1
    26   13   22 ar
    27   13   14 ar
    28   14   15 ar
    29   14   42 1
    30   15   16 ar
    31   15   43 1
    32   16   21 ar
    33   16   17 ar
    34   17   18 ar
    35   17   44 1
    36   18   19 ar
    37   18   45 1
    38   19   20 ar
    39   19   46 1
    40   20   21 ar
    41   21   22 ar
    42   22   23 1
    43   23   47 1
    44   24   25 1
    45   24   48 1
    46   25   26 ar
    47   25   55 ar
    48   26   27 ar
    49   26   49 1
    50   27   28 ar
    51   27   30 1
    52   28   29 ar
    53   28   50 1
    54   29   51 1
    55   29   55 ar
    56   30   52 1
    57   30   53 1
    58   30   54 1
    59   55   56 1
