@<TRIPOS>MOLECULE
ZINC01103340
   36    38     0     0     0
SMALL
USER_CHARGES
(4S,4aR)-2-amino-4-(4-bromo-2-thienyl)-4a,5,6,7-tetrahydro-4H-naphthalene-1,3,3-tricarbonitrile
@<TRIPOS>ATOM
      1 C1          0.4016   -1.2975    2.2039 C.2       1 <0>        -0.1166
      2 C2          1.3160   -1.6338    3.1851 C.2       1 <0>        -0.1260
      3 C3          2.5831   -1.1601    3.0926 C.2       1 <0>        -0.1554
      4 S1          2.5140   -0.2129    1.5809 S.3       1 <0>         0.1421
      5 C4          0.7992   -0.5044    1.1790 C.2       1 <0>        -0.1611
      6 C5          0.0021   -0.0041    0.0020 C.3       1 <0>         0.0272
      7 H1         -1.0213   -0.3990    0.0835 H         1 <0>         0.1327
      8 C6         -0.0187    1.5256    0.0104 C.3       1 <0>        -0.0404
      9 H2         -0.5022    1.9269   -0.8925 H         1 <0>         0.0982
     10 C7         -0.8634    2.0719    1.1375 C.3       1 <0>        -0.1132
     11 C8         -0.0126    2.4964    2.3328 C.3       1 <0>        -0.1246
     12 C9          0.9797    3.5691    1.8633 C.3       1 <0>        -0.0916
     13 C10         1.8592    2.9514    0.8072 C.2       1 <0>        -0.1225
     14 C11         1.3985    2.0166   -0.0005 C.2       1 <0>        -0.0656
     15 C12         2.3305    1.3592   -0.9543 C.2       1 <0>        -0.1426
     16 C13         1.9681    0.1896   -1.5386 C.2       1 <0>         0.2514
     17 C14         0.6509   -0.4836   -1.2969 C.3       1 <0>         0.2093
     18 C15         0.8620   -1.9384   -1.2197 C.1       1 <0>         0.1910
     19 N1          1.0250   -3.0610   -1.1602 N.1       1 <0>        -0.3447
     20 C16        -0.2521   -0.1901   -2.4217 C.1       1 <0>         0.1984
     21 N2         -0.9490    0.0364   -3.2898 N.1       1 <0>        -0.3475
     22 N3          2.8515   -0.4066   -2.3941 N.pl3     1 <0>        -0.8597
     23 C17         3.5983    1.9544   -1.2529 C.1       1 <0>         0.2672
     24 N4          4.6040    2.4265   -1.4897 N.1       1 <0>        -0.4277
     25 Br1         0.8074   -2.7379    4.6335 Br        1 <0>        -0.0382
     26 H3         -0.6140   -1.6616    2.2532 H         1 <0>         0.1434
     27 H4          3.4186   -1.3181    3.7585 H         1 <0>         0.1929
     28 H5         -1.4230    2.9504    0.7838 H         1 <0>         0.0762
     29 H6         -1.5695    1.2987    1.4746 H         1 <0>         0.0753
     30 H7         -0.6638    2.9043    3.1199 H         1 <0>         0.0698
     31 H8          0.5323    1.6243    2.7232 H         1 <0>         0.0693
     32 H9          0.4261    4.4237    1.4472 H         1 <0>         0.0801
     33 H10         1.5867    3.9058    2.7167 H         1 <0>         0.0759
     34 H11         2.9011    3.2923    0.7162 H         1 <0>         0.1131
     35 H12         2.5876   -1.3555   -2.8839 H         1 <0>         0.4263
     36 H13         3.8264    0.0625   -2.5929 H         1 <0>         0.4373
@<TRIPOS>BOND
     1    1    5 2
     2    1    2 1
     3    1   26 1
     4    2    3 2
     5    2   25 1
     6    3    4 1
     7    3   27 1
     8    4    5 1
     9    5    6 1
    10    6    7 1
    11    6   17 1
    12    6    8 1
    13    8    9 1
    14    8   14 1
    15    8   10 1
    16   10   11 1
    17   10   28 1
    18   10   29 1
    19   11   12 1
    20   11   30 1
    21   11   31 1
    22   12   13 1
    23   12   32 1
    24   12   33 1
    25   13   14 2
    26   13   34 1
    27   14   15 1
    28   15   16 2
    29   15   23 1
    30   16   17 1
    31   16   22 1
    32   17   18 1
    33   17   20 1
    34   18   19 3
    35   20   21 3
    36   22   35 1
    37   22   36 1
    38   23   24 3
