@<TRIPOS>MOLECULE
ZINC59106085
   45    47     0     0     0
SMALL
USER_CHARGES

@<TRIPOS>ATOM
      1 C1          0.8731    1.1949   -0.4632 C.2       1 <0>        -0.1953
      2 C2          0.5715   -0.0696   -0.3013 C.2       1 <0>        -0.1425
      3 C3          1.6680   -1.0946   -0.1670 C.3       1 <0>        -0.0459
      4 C4          1.4719   -1.8761    1.1065 C.ar      1 <0>        -0.1185
      5 C5          2.1297   -1.4952    2.2547 C.ar      1 <0>        -0.0372
      6 C6          1.9465   -2.2222    3.4372 C.ar      1 <0>        -0.1343
      7 C7          1.0945   -3.3337    3.4449 C.ar      1 <0>        -0.0028
      8 C8          0.4420   -3.7055    2.2913 C.ar      1 <0>        -0.2157
      9 C9          0.6232   -2.9765    1.1214 C.ar      1 <0>         0.1611
     10 O1         -0.0276   -3.3442   -0.0122 O.3       1 <0>        -0.3021
     11 C10        -0.8847   -4.4844    0.0725 C.3       1 <0>         0.1726
     12 C11        -1.5013   -4.7334   -1.2407 C.1       1 <0>        -0.2076
     13 C12        -1.9931   -4.9320   -2.2881 C.1       1 <0>        -0.1487
     14 C13         2.6457   -1.8210    4.6647 C.2       1 <0>         0.0851
     15 C14         3.1490   -2.7661    5.4989 C.2       1 <0>        -0.2286
     16 C15         3.2662   -4.2234    5.3002 C.2       1 <0>         0.5552
     17 O2          2.8864   -4.7582    4.2750 O.2       1 <0>        -0.4717
     18 N1          3.8030   -4.9219    6.2863 N.am      1 <0>        -0.6493
     19 C16         4.2274   -4.2975    7.4393 C.2       1 <0>         0.4050
     20 N2          4.7771   -4.8352    8.5046 N.2       1 <0>        -0.4612
     21 C17         5.1359   -4.0443    9.5630 C.ar      1 <0>         0.0852
     22 C18         5.8050   -2.8386    9.3420 C.ar      1 <0>        -0.1180
     23 C19         6.1635   -2.0457   10.4123 C.ar      1 <0>        -0.1315
     24 C20         5.8610   -2.4433   11.7046 C.ar      1 <0>         0.0997
     25 C21         5.1977   -3.6387   11.9302 C.ar      1 <0>        -0.1377
     26 C22         4.8290   -4.4372   10.8675 C.ar      1 <0>        -0.0672
     27 F1          6.2147   -1.6626   12.7489 F         1 <0>        -0.1348
     28 S1          3.8550   -2.5790    7.1298 S.3       1 <0>        -0.0308
     29 H1          1.9076    1.5027   -0.5006 H         1 <0>         0.0965
     30 H2          0.0873    1.9289   -0.5639 H         1 <0>         0.0975
     31 H3         -0.4631   -0.3775   -0.2639 H         1 <0>         0.1079
     32 H4          1.6365   -1.7741   -1.0187 H         1 <0>         0.0865
     33 H5          2.6344   -0.5913   -0.1393 H         1 <0>         0.0774
     34 H6          2.7858   -0.6375    2.2431 H         1 <0>         0.1365
     35 H7          0.9499   -3.8982    4.3542 H         1 <0>         0.1259
     36 H8         -0.2150   -4.5626    2.2960 H         1 <0>         0.1330
     37 H9         -0.3018   -5.3557    0.3713 H         1 <0>         0.0897
     38 H10        -1.6647   -4.2986    0.8108 H         1 <0>         0.0894
     39 H11        -2.4330   -5.1096   -3.2248 H         1 <0>         0.2258
     40 H12         2.7594   -0.7739    4.9038 H         1 <0>         0.1554
     41 H13         3.8986   -5.8831    6.1974 H         1 <0>         0.4249
     42 H14         6.0416   -2.5278    8.3351 H         1 <0>         0.1408
     43 H15         6.6814   -1.1132   10.2426 H         1 <0>         0.1430
     44 H16         4.9649   -3.9437   12.9397 H         1 <0>         0.1450
     45 H17         4.3078   -5.3664   11.0442 H         1 <0>         0.1428
@<TRIPOS>BOND
     1    1    2 2
     2    1   29 1
     3    1   30 1
     4    2    3 1
     5    2   31 1
     6    3    4 1
     7    3   32 1
     8    3   33 1
     9    4    9 ar
    10    4    5 ar
    11    5    6 ar
    12    5   34 1
    13    6    7 ar
    14    6   14 1
    15    7    8 ar
    16    7   35 1
    17    8    9 ar
    18    8   36 1
    19    9   10 1
    20   10   11 1
    21   11   12 1
    22   11   37 1
    23   11   38 1
    24   12   13 3
    25   13   39 1
    26   14   15 2
    27   14   40 1
    28   15   28 1
    29   15   16 1
    30   16   17 2
    31   16   18 am
    32   18   19 1
    33   18   41 1
    34   19   20 2
    35   19   28 1
    36   20   21 1
    37   21   26 ar
    38   21   22 ar
    39   22   23 ar
    40   22   42 1
    41   23   24 ar
    42   23   43 1
    43   24   25 ar
    44   24   27 1
    45   25   26 ar
    46   25   44 1
    47   26   45 1
