@<TRIPOS>MOLECULE
ZINC40720105
   62    65     0     0     0
SMALL
USER_CHARGES

@<TRIPOS>ATOM
      1 C1         -0.0187    1.5258    0.0104 C.3       1 <0>        -0.1867
      2 C2          0.0021   -0.0041    0.0020 C.3       1 <0>        -0.0050
      3 N1          0.7126   -0.4907    1.1921 N.4       1 <0>        -0.3829
      4 C3         -0.0518   -0.1369    2.4072 C.3       1 <0>        -0.0170
      5 C4         -0.8899   -1.3994    2.7289 C.3       1 <0>        -0.1400
      6 C5          0.0971   -2.5353    2.3516 C.3       1 <0>        -0.1354
      7 C6          0.8401   -1.9582    1.1284 C.3       1 <0>         0.0282
      8 H1          0.3867   -2.3303    0.2096 H         1 <0>         0.1351
      9 C7          2.3168   -2.3551    1.1815 C.3       1 <0>         0.0297
     10 N2          3.0489   -1.6619    0.1131 N.3       1 <0>        -0.6979
     11 C8          4.4735   -2.0196    0.1333 C.3       1 <0>         0.1162
     12 C9          5.1902   -1.2909   -0.9741 C.ar      1 <0>        -0.1399
     13 C10         5.2992   -1.8731   -2.2477 C.ar      1 <0>        -0.0023
     14 C11         4.7486   -3.1374   -2.5208 C.ar      1 <0>        -0.1338
     15 C12         4.8727   -3.6711   -3.7665 C.ar      1 <0>        -0.0905
     16 C13         5.5391   -2.9828   -4.7788 C.ar      1 <0>        -0.1291
     17 C14         6.0847   -1.7568   -4.5510 C.ar      1 <0>        -0.0847
     18 C15         5.9764   -1.1730   -3.2774 C.ar      1 <0>        -0.0855
     19 C16         6.5272    0.0918   -3.0063 C.ar      1 <0>        -0.0482
     20 C17         6.4047    0.6283   -1.7628 C.ar      1 <0>        -0.1990
     21 C18         5.7325   -0.0583   -0.7467 C.ar      1 <0>         0.1636
     22 O1          5.6216    0.5063    0.4843 O.3       1 <0>        -0.3048
     23 C19         6.2089    1.7969    0.6614 C.3       1 <0>         0.1025
     24 C20         5.9876    2.2593    2.0786 C.ar      1 <0>        -0.0957
     25 C21         5.3069    1.4519    2.9708 C.ar      1 <0>        -0.0987
     26 C22         5.1039    1.8760    4.2705 C.ar      1 <0>        -0.1292
     27 C23         5.5820    3.1075    4.6785 C.ar      1 <0>        -0.1104
     28 C24         6.2633    3.9143    3.7867 C.ar      1 <0>        -0.1149
     29 C25         6.4700    3.4882    2.4878 C.ar      1 <0>        -0.0736
     30 C26         7.2175    4.3656    1.5169 C.3       1 <0>        -0.1252
     31 H2          1.0039    1.9031    0.0027 H         1 <0>         0.0811
     32 H3         -0.5459    1.8868   -0.8726 H         1 <0>         0.1036
     33 H4         -0.5289    1.8773    0.9072 H         1 <0>         0.0779
     34 H5         -1.0205   -0.3814    0.0098 H         1 <0>         0.1234
     35 H6          0.5123   -0.3556   -0.8948 H         1 <0>         0.1266
     36 H7          0.6266    0.0880    3.2302 H         1 <0>         0.1309
     37 H8         -0.7056    0.7126    2.2103 H         1 <0>         0.1347
     38 H9         -1.1449   -1.4394    3.7879 H         1 <0>         0.1167
     39 H10        -1.7869   -1.4403    2.1110 H         1 <0>         0.0961
     40 H11         0.7922   -2.7290    3.1686 H         1 <0>         0.1018
     41 H12        -0.4440   -3.4421    2.0813 H         1 <0>         0.1120
     42 H13         2.7338   -2.0747    2.1487 H         1 <0>         0.1003
     43 H14         2.4086   -3.4326    1.0448 H         1 <0>         0.0797
     44 H15         4.9055   -1.7369    1.0933 H         1 <0>         0.0922
     45 H16         4.5802   -3.0948   -0.0106 H         1 <0>         0.0518
     46 H17         4.2301   -3.6825   -1.7460 H         1 <0>         0.1207
     47 H18         4.4488   -4.6425   -3.9737 H         1 <0>         0.1252
     48 H19         5.6242   -3.4291   -5.7586 H         1 <0>         0.1273
     49 H20         6.5985   -1.2355   -5.3451 H         1 <0>         0.1308
     50 H21         7.0459    0.6350   -3.7825 H         1 <0>         0.1357
     51 H22         6.8294    1.6000   -1.5580 H         1 <0>         0.1328
     52 H23         7.2787    1.7399    0.4607 H         1 <0>         0.0780
     53 H24         5.7471    2.5039   -0.0278 H         1 <0>         0.0768
     54 H25         4.9334    0.4900    2.6522 H         1 <0>         0.1265
     55 H26         4.5716    1.2456    4.9674 H         1 <0>         0.1212
     56 H27         5.4228    3.4392    5.6939 H         1 <0>         0.1253
     57 H28         6.6365    4.8764    4.1053 H         1 <0>         0.1279
     58 H29         6.5134    5.0182    1.0008 H         1 <0>         0.0757
     59 H30         7.9437    4.9711    2.0592 H         1 <0>         0.0746
     60 H31         7.7359    3.7420    0.7886 H         1 <0>         0.0665
     61 H32         2.6404   -1.8548   -0.7892 H         1 <0>         0.3475
     62 H33         1.6294   -0.0718    1.2361 H         1 <0>         0.4335
@<TRIPOS>BOND
     1    1    2 1
     2    1   31 1
     3    1   32 1
     4    1   33 1
     5    2    3 1
     6    2   34 1
     7    2   35 1
     8    3    7 1
     9    3    4 1
    10    3   62 1
    11    4    5 1
    12    4   36 1
    13    4   37 1
    14    5    6 1
    15    5   38 1
    16    5   39 1
    17    6    7 1
    18    6   40 1
    19    6   41 1
    20    7    8 1
    21    7    9 1
    22    9   10 1
    23    9   42 1
    24    9   43 1
    25   10   11 1
    26   10   61 1
    27   11   12 1
    28   11   44 1
    29   11   45 1
    30   12   21 ar
    31   12   13 ar
    32   13   18 ar
    33   13   14 ar
    34   14   15 ar
    35   14   46 1
    36   15   16 ar
    37   15   47 1
    38   16   17 ar
    39   16   48 1
    40   17   18 ar
    41   17   49 1
    42   18   19 ar
    43   19   20 ar
    44   19   50 1
    45   20   21 ar
    46   20   51 1
    47   21   22 1
    48   22   23 1
    49   23   24 1
    50   23   52 1
    51   23   53 1
    52   24   29 ar
    53   24   25 ar
    54   25   26 ar
    55   25   54 1
    56   26   27 ar
    57   26   55 1
    58   27   28 ar
    59   27   56 1
    60   28   29 ar
    61   28   57 1
    62   29   30 1
    63   30   58 1
    64   30   59 1
    65   30   60 1
