@<TRIPOS>MOLECULE
ZINC26165724
   34    35     0     0     0
SMALL
USER_CHARGES
3-[(5-bromo-2-thienyl)methyl]-1-(m-tolylmethyl)urea
@<TRIPOS>ATOM
      1 C1          8.6563    0.6608   -7.5265 C.3       1 <0>        -0.1196
      2 C2          8.1453   -0.5470   -6.7841 C.ar      1 <0>        -0.0867
      3 C3          7.8676   -1.7143   -7.4710 C.ar      1 <0>        -0.1123
      4 C4          7.3994   -2.8222   -6.7901 C.ar      1 <0>        -0.1175
      5 C5          7.2125   -2.7643   -5.4214 C.ar      1 <0>        -0.1060
      6 C6          7.4856   -1.5959   -4.7354 C.ar      1 <0>        -0.1039
      7 C7          7.9548   -0.4880   -5.4164 C.ar      1 <0>        -0.1013
      8 C8          7.2777   -1.5315   -3.2442 C.3       1 <0>         0.1833
      9 N1          5.9121   -1.0834   -2.9603 N.am      1 <0>        -0.7511
     10 C9          5.4979   -0.9506   -1.6847 C.2       1 <0>         0.7085
     11 O1          6.2576   -1.2028   -0.7695 O.2       1 <0>        -0.5941
     12 N2          4.2416   -0.5384   -1.4236 N.am      1 <0>        -0.7558
     13 C10         3.7914   -0.3940   -0.0370 C.3       1 <0>         0.2261
     14 C11         2.3598    0.0765   -0.0201 C.2       1 <0>        -0.1550
     15 C12         1.2205   -0.6573   -0.0131 C.2       1 <0>        -0.1344
     16 C13         0.0021   -0.0041    0.0020 C.2       1 <0>        -0.1139
     17 C14        -0.0163    1.3521    0.0095 C.2       1 <0>        -0.1728
     18 S1          1.7251    1.7450   -0.0050 S.3       1 <0>         0.1156
     19 Br1        -1.5012    2.5229    0.0233 Br        1 <0>         0.0424
     20 H1          8.7426    0.4236   -8.5972 H         1 <0>         0.0666
     21 H2          9.6439    0.9426   -7.1325 H         1 <0>         0.0713
     22 H3          7.9553    1.4977   -7.3917 H         1 <0>         0.0708
     23 H4          8.0168   -1.7605   -8.5397 H         1 <0>         0.1230
     24 H5          7.1828   -3.7341   -7.3266 H         1 <0>         0.1244
     25 H6          6.8502   -3.6312   -4.8888 H         1 <0>         0.1232
     26 H7          8.1721    0.4237   -4.8798 H         1 <0>         0.1233
     27 H8          7.4341   -2.5295   -2.8088 H         1 <0>         0.0736
     28 H9          7.9950   -0.8230   -2.8042 H         1 <0>         0.0733
     29 H10         5.2248   -0.8553   -3.7883 H         1 <0>         0.4164
     30 H11         3.5543   -0.3104   -2.2516 H         1 <0>         0.4181
     31 H12         3.8644   -1.3647    0.4752 H         1 <0>         0.0926
     32 H13         4.4253    0.3417    0.4796 H         1 <0>         0.0835
     33 H14         1.2636   -1.7365   -0.0190 H         1 <0>         0.1444
     34 H15        -0.9208   -0.5650    0.0082 H         1 <0>         0.1440
@<TRIPOS>BOND
     1    1    2 1
     2    1   20 1
     3    1   21 1
     4    1   22 1
     5    2    7 ar
     6    2    3 ar
     7    3    4 ar
     8    3   23 1
     9    4    5 ar
    10    4   24 1
    11    5    6 ar
    12    5   25 1
    13    6    7 ar
    14    6    8 1
    15    7   26 1
    16    8    9 1
    17    8   27 1
    18    8   28 1
    19    9   10 am
    20    9   29 1
    21   10   11 2
    22   10   12 am
    23   12   13 1
    24   12   30 1
    25   13   14 1
    26   13   31 1
    27   13   32 1
    28   14   18 1
    29   14   15 2
    30   15   16 1
    31   15   33 1
    32   16   17 2
    33   16   34 1
    34   17   18 1
    35   17   19 1
