@<TRIPOS>MOLECULE
ZINC32700768
   39    42     0     0     0
SMALL
USER_CHARGES
N-(3-oxo-4H-1,4-benzoxazin-6-yl)-1-phenyl-pyrazole-3-carboxamide
@<TRIPOS>ATOM
      1 C1          0.0382   -2.7705   -0.0680 C.ar      1 <0>        -0.1156
      2 C2         -1.1693   -2.0968   -0.0475 C.ar      1 <0>        -0.0978
      3 C3         -1.1910   -0.7160   -0.0287 C.ar      1 <0>        -0.1079
      4 C4          0.0012   -0.0041   -0.0305 C.ar      1 <0>         0.1284
      5 C5          1.2120   -0.6835   -0.0565 C.ar      1 <0>        -0.1250
      6 C6          1.2272   -2.0645   -0.0699 C.ar      1 <0>        -0.0951
      7 N1         -0.0175    1.3967   -0.0121 N.pl3     1 <0>        -0.2275
      8 C7          1.0854    2.1901   -0.0120 C.2       1 <0>        -0.0126
      9 C8          0.6538    3.4727    0.0088 C.2       1 <0>        -0.1649
     10 C9         -0.7596    3.3975    0.0210 C.2       1 <0>        -0.0088
     11 N2         -1.0802    2.1186    0.0017 N.2       1 <0>        -0.2575
     12 C10        -1.6983    4.5368    0.0443 C.2       1 <0>         0.6115
     13 O1         -1.2722    5.6756    0.0548 O.2       1 <0>        -0.5123
     14 N3         -3.0276    4.3146    0.0538 N.am      1 <0>        -0.6722
     15 C11        -3.9164    5.3900    0.1734 C.ar      1 <0>         0.1619
     16 C12        -5.1042    5.2338    0.8759 C.ar      1 <0>        -0.1351
     17 C13        -5.9824    6.2942    1.0010 C.ar      1 <0>        -0.0849
     18 C14        -5.6830    7.5124    0.4163 C.ar      1 <0>         0.0569
     19 C15        -4.4943    7.6706   -0.2948 C.ar      1 <0>         0.1188
     20 C16        -3.6123    6.6104   -0.4155 C.ar      1 <0>        -0.1298
     21 N4         -4.2071    8.9105   -0.8831 N.am      1 <0>        -0.6709
     22 C17        -4.9083    9.9978   -0.4948 C.2       1 <0>         0.4933
     23 O2         -4.6974   11.0749   -1.0112 O.2       1 <0>        -0.5123
     24 C18        -5.9538    9.8671    0.5834 C.3       1 <0>         0.0464
     25 O3         -6.5396    8.5638    0.5292 O.3       1 <0>        -0.3016
     26 H1          0.0526   -3.8503   -0.0823 H         1 <0>         0.1331
     27 H2         -2.0962   -2.6510   -0.0464 H         1 <0>         0.1367
     28 H3         -2.1344   -0.1904   -0.0123 H         1 <0>         0.1411
     29 H4          2.1409   -0.1326   -0.0625 H         1 <0>         0.1347
     30 H5          2.1686   -2.5934   -0.0863 H         1 <0>         0.1374
     31 H6          2.1135    1.8593   -0.0254 H         1 <0>         0.1888
     32 H7          1.2605    4.3662    0.0143 H         1 <0>         0.1709
     33 H8         -3.4143    3.2884   -0.0324 H         1 <0>         0.4455
     34 H9         -5.3408    4.2823    1.3289 H         1 <0>         0.1389
     35 H10        -6.9035    6.1708    1.5511 H         1 <0>         0.1449
     36 H11        -2.6907    6.7320   -0.9653 H         1 <0>         0.1503
     37 H12        -3.4209    8.9871   -1.6486 H         1 <0>         0.4430
     38 H13        -5.4861   10.0166    1.5677 H         1 <0>         0.1010
     39 H14        -6.7356   10.6256    0.4300 H         1 <0>         0.1482
@<TRIPOS>BOND
     1    1    6 ar
     2    1    2 ar
     3    1   26 1
     4    2    3 ar
     5    2   27 1
     6    3    4 ar
     7    3   28 1
     8    4    5 ar
     9    4    7 1
    10    5    6 ar
    11    5   29 1
    12    6   30 1
    13    7   11 1
    14    7    8 1
    15    8    9 2
    16    8   31 1
    17    9   10 1
    18    9   32 1
    19   10   11 2
    20   10   12 1
    21   12   13 2
    22   12   14 am
    23   14   15 1
    24   14   33 1
    25   15   20 ar
    26   15   16 ar
    27   16   17 ar
    28   16   34 1
    29   17   18 ar
    30   17   35 1
    31   18   25 1
    32   18   19 ar
    33   19   20 ar
    34   19   21 1
    35   20   36 1
    36   21   22 am
    37   21   37 1
    38   22   23 2
    39   22   24 1
    40   24   25 1
    41   24   38 1
    42   24   39 1
