@<TRIPOS>MOLECULE
ZINC63623104
   52    54     0     0     0
SMALL
USER_CHARGES

@<TRIPOS>ATOM
      1 C1         -1.8119    0.7639   -1.5746 C.3       1 <0>         0.0202
      2 O1         -1.2346   -0.4454   -1.0782 O.3       1 <0>        -0.2936
      3 C2         -0.0512   -0.8343   -1.6243 C.ar      1 <0>         0.1197
      4 C3          0.5391   -0.0674   -2.6071 C.ar      1 <0>        -0.1410
      5 C4          1.7598   -0.4711   -3.1678 C.ar      1 <0>        -0.0863
      6 C5          2.3725   -1.6532   -2.7246 C.ar      1 <0>        -0.0481
      7 C6          1.7738   -2.4111   -1.7424 C.ar      1 <0>        -0.1547
      8 C7          0.5675   -2.0058   -1.1854 C.ar      1 <0>         0.1464
      9 O2         -0.0142   -2.7546   -0.2138 O.3       1 <0>        -0.2861
     10 C8          0.6721   -3.9416    0.1887 C.3       1 <0>         0.1705
     11 C9         -0.0993   -4.6209    1.2425 C.1       1 <0>        -0.2162
     12 C10        -0.7145   -5.1627    2.0828 C.1       1 <0>        -0.1347
     13 Br1         4.0180   -2.2054   -3.4752 Br        1 <0>        -0.0173
     14 C11         2.3919    0.3373   -4.2115 C.2       1 <0>         0.0894
     15 C12         2.2560    1.7089   -4.1980 C.2       1 <0>        -0.1390
     16 C13         1.6218    2.3546   -3.0883 C.1       1 <0>         0.2399
     17 N1          1.1186    2.8669   -2.2080 N.1       1 <0>        -0.3959
     18 C14         2.7625    2.5093   -5.3234 C.2       1 <0>         0.5845
     19 O3          3.3013    1.9607   -6.2661 O.2       1 <0>        -0.5153
     20 N2          2.6296    3.8504   -5.3102 N.am      1 <0>        -0.7316
     21 C15         3.1340    4.6476   -6.4311 C.3       1 <0>         0.1268
     22 C16         2.8586    6.1294   -6.1678 C.3       1 <0>        -0.1077
     23 C17         3.3775    6.9494   -7.3208 C.2       1 <0>         0.0708
     24 C18         2.6735    7.3855   -8.3902 C.ar      1 <0>        -0.1664
     25 C19         1.2683    7.2319   -8.7855 C.ar      1 <0>        -0.0129
     26 C20         0.8465    7.7950   -9.9405 C.ar      1 <0>        -0.1499
     27 C21         1.7157    8.5194  -10.7678 C.ar      1 <0>         0.0549
     28 C22         3.0197    8.7036  -10.4719 C.ar      1 <0>        -0.2098
     29 C23         3.5709    8.1555   -9.2809 C.ar      1 <0>         0.3281
     30 N3          4.7824    8.1939   -8.7816 N.pl3     1 <0>        -0.5843
     31 C24         4.7891    7.4568   -7.5131 C.3       1 <0>         0.0602
     32 H1         -1.1241    1.5919   -1.4032 H         1 <0>         0.0598
     33 H2         -2.0012    0.6641   -2.6434 H         1 <0>         0.0572
     34 H3         -2.7507    0.9580   -1.0559 H         1 <0>         0.1102
     35 H4          0.0625    0.8412   -2.9443 H         1 <0>         0.1477
     36 H5          2.2454   -3.3210   -1.4017 H         1 <0>         0.1580
     37 H6          0.7809   -4.6067   -0.6680 H         1 <0>         0.0937
     38 H7          1.6580   -3.6789    0.5723 H         1 <0>         0.0929
     39 H8         -1.2647   -5.6473    2.8345 H         1 <0>         0.2278
     40 H9          2.9648   -0.1409   -4.9922 H         1 <0>         0.1728
     41 H10         2.2000    4.2879   -4.5586 H         1 <0>         0.4060
     42 H11         4.2076    4.4904   -6.5347 H         1 <0>         0.0837
     43 H12         2.6318    4.3423   -7.3491 H         1 <0>         0.0844
     44 H13         1.7850    6.2866   -6.0642 H         1 <0>         0.1167
     45 H14         3.3608    6.4347   -5.2498 H         1 <0>         0.1199
     46 H15         0.5815    6.6772   -8.1634 H         1 <0>         0.1607
     47 H16        -0.1870    7.6832  -10.2333 H         1 <0>         0.1582
     48 H17         1.3261    8.9475  -11.6796 H         1 <0>         0.1612
     49 H18         3.6480    9.2700  -11.1434 H         1 <0>         0.1609
     50 H19         5.0653    8.1192   -6.6926 H         1 <0>         0.1755
     51 H20         5.4847    6.6196   -7.5711 H         1 <0>         0.1755
     52 H21         5.5458    8.6387   -9.1819 H         1 <0>         0.4564
@<TRIPOS>BOND
     1    1    2 1
     2    1   32 1
     3    1   33 1
     4    1   34 1
     5    2    3 1
     6    3    8 ar
     7    3    4 ar
     8    4    5 ar
     9    4   35 1
    10    5    6 ar
    11    5   14 1
    12    6    7 ar
    13    6   13 1
    14    7    8 ar
    15    7   36 1
    16    8    9 1
    17    9   10 1
    18   10   11 1
    19   10   37 1
    20   10   38 1
    21   11   12 3
    22   12   39 1
    23   14   15 2
    24   14   40 1
    25   15   16 1
    26   15   18 1
    27   16   17 3
    28   18   19 2
    29   18   20 am
    30   20   21 1
    31   20   41 1
    32   21   22 1
    33   21   42 1
    34   21   43 1
    35   22   23 1
    36   22   44 1
    37   22   45 1
    38   23   31 1
    39   23   24 2
    40   24   29 ar
    41   24   25 ar
    42   25   26 ar
    43   25   46 1
    44   26   27 ar
    45   26   47 1
    46   27   28 ar
    47   27   48 1
    48   28   29 ar
    49   28   49 1
    50   29   30 2
    51   30   31 1
    52   30   52 1
    53   31   50 1
    54   31   51 1
