@<TRIPOS>MOLECULE
ZINC02558507
   44    46     0     0     0
SMALL
USER_CHARGES
(2-amino-6-ethyl-4,5,6,7-tetrahydrobenzothiophen-3-yl)-(1-piperidyl)methanone
@<TRIPOS>ATOM
      1 C1         -0.8822    3.5599   -1.1580 C.3       1 <0>        -0.1555
      2 C2         -0.7536    2.0370   -1.2309 C.3       1 <0>        -0.1191
      3 C3         -0.0187    1.5272    0.0104 C.3       1 <0>        -0.0797
      4 H1         -0.5253    1.8808    0.9085 H         1 <0>         0.0760
      5 C4          0.0021   -0.0041    0.0020 C.3       1 <0>        -0.1145
      6 C5          0.5111   -0.5247    1.3473 C.3       1 <0>        -0.0601
      7 C6          1.8368    0.1554    1.6667 C.2       1 <0>        -0.0375
      8 C7          2.2023    1.2945    1.0416 C.2       1 <0>        -0.1986
      9 S1          3.7836    1.7003    1.7264 S.3       1 <0>         0.1047
     10 C8          3.9595    0.3761    2.8298 C.2       1 <0>         0.1537
     11 C9          2.7899   -0.3494    2.6420 C.2       1 <0>        -0.2848
     12 C10         2.5266   -1.5758    3.3978 C.2       1 <0>         0.5901
     13 O1          2.8889   -2.6515    2.9579 O.2       1 <0>        -0.5398
     14 N1          1.8831   -1.5135    4.5804 N.am      1 <0>        -0.6060
     15 C11         1.4452   -0.2220    5.1272 C.3       1 <0>         0.1113
     16 C12        -0.0550   -0.3100    5.4462 C.3       1 <0>        -0.1343
     17 C13        -0.3044   -1.5017    6.3734 C.3       1 <0>        -0.1205
     18 C14         0.1146   -2.7944    5.6694 C.3       1 <0>        -0.1341
     19 C15         1.6117   -2.7351    5.3502 C.3       1 <0>         0.1081
     20 N2          5.0086    0.1070    3.6882 N.pl3     1 <0>        -0.8163
     21 C16         1.4282    2.0414   -0.0006 C.3       1 <0>        -0.0258
     22 H2         -1.4058    3.9231   -2.0423 H         1 <0>         0.0540
     23 H3         -1.4435    3.8348   -0.2649 H         1 <0>         0.0541
     24 H4          0.1111    4.0067   -1.1147 H         1 <0>         0.0560
     25 H5         -0.1924    1.7621   -2.1239 H         1 <0>         0.0642
     26 H6         -1.7469    1.5902   -1.2741 H         1 <0>         0.0649
     27 H7         -1.0063   -0.3789   -0.1732 H         1 <0>         0.0695
     28 H8          0.6602   -0.3529   -0.7938 H         1 <0>         0.0673
     29 H9         -0.2150   -0.2940    2.1268 H         1 <0>         0.0749
     30 H10         0.6559   -1.6035    1.2905 H         1 <0>         0.0743
     31 H11         2.0029   -0.0026    6.0376 H         1 <0>         0.0649
     32 H12         1.6183    0.5638    4.3919 H         1 <0>         0.0878
     33 H13        -0.6186   -0.4432    4.5228 H         1 <0>         0.0676
     34 H14        -0.3754    0.6078    5.9392 H         1 <0>         0.0747
     35 H15        -1.3641   -1.5516    6.6236 H         1 <0>         0.0664
     36 H16         0.2787   -1.3799    7.2862 H         1 <0>         0.0639
     37 H17        -0.4506   -2.9043    4.7438 H         1 <0>         0.0667
     38 H18        -0.0851   -3.6452    6.3208 H         1 <0>         0.0754
     39 H19         1.8948   -3.6081    4.7621 H         1 <0>         0.0920
     40 H20         2.1827   -2.7165    6.2785 H         1 <0>         0.0658
     41 H21         5.7736    0.7025    3.7208 H         1 <0>         0.4116
     42 H22         4.9800   -0.6774    4.2582 H         1 <0>         0.4093
     43 H23         1.8717    1.8689   -0.9813 H         1 <0>         0.0790
     44 H24         1.4408    3.1074    0.2263 H         1 <0>         0.0785
@<TRIPOS>BOND
     1    1    2 1
     2    1   22 1
     3    1   23 1
     4    1   24 1
     5    2    3 1
     6    2   25 1
     7    2   26 1
     8    3    4 1
     9    3   21 1
    10    3    5 1
    11    5    6 1
    12    5   27 1
    13    5   28 1
    14    6    7 1
    15    6   29 1
    16    6   30 1
    17    7   11 1
    18    7    8 2
    19    8    9 1
    20    8   21 1
    21    9   10 1
    22   10   11 2
    23   10   20 1
    24   11   12 1
    25   12   13 2
    26   12   14 am
    27   14   19 1
    28   14   15 1
    29   15   16 1
    30   15   31 1
    31   15   32 1
    32   16   17 1
    33   16   33 1
    34   16   34 1
    35   17   18 1
    36   17   35 1
    37   17   36 1
    38   18   19 1
    39   18   37 1
    40   18   38 1
    41   19   39 1
    42   19   40 1
    43   20   41 1
    44   20   42 1
    45   21   43 1
    46   21   44 1
