@<TRIPOS>MOLECULE
ZINC03648716
   54    57     0     0     0
SMALL
USER_CHARGES
3-(3-chlorophenyl)-N-[4-methyl-2-(1-piperidyl)-6-quinolyl]-prop-2-enamide
@<TRIPOS>ATOM
      1 C1         -1.7455    5.3472   -2.4736 C.3       1 <0>        -0.1467
      2 C2         -1.5898    3.8614   -2.2754 C.ar      1 <0>         0.1051
      3 C3         -0.8607    3.3679   -1.2355 C.ar      1 <0>        -0.1920
      4 C4         -0.7247    1.9820   -1.0739 C.ar      1 <0>         0.4353
      5 C5         -2.0288    1.5576   -2.9380 C.ar      1 <0>         0.1380
      6 C6         -2.1990    2.9464   -3.1584 C.ar      1 <0>        -0.0805
      7 C7         -2.9667    3.3881   -4.2464 C.ar      1 <0>        -0.0695
      8 C8         -3.5460    2.4631   -5.0878 C.ar      1 <0>         0.1595
      9 C9         -3.3740    1.0926   -4.8645 C.ar      1 <0>        -0.0593
     10 C10        -2.6345    0.6420   -3.8161 C.ar      1 <0>        -0.1265
     11 N1         -4.3120    2.8980   -6.1743 N.am      1 <0>        -0.6715
     12 C11        -5.0685    4.0080   -6.0642 C.2       1 <0>         0.5590
     13 O1         -5.0218    4.6781   -5.0493 O.2       1 <0>        -0.5217
     14 C12        -5.9462    4.4077   -7.1655 C.2       1 <0>        -0.2350
     15 C13        -6.7030    5.5182   -7.0554 C.2       1 <0>         0.0173
     16 C14        -7.5857    5.9201   -8.1627 C.ar      1 <0>        -0.0807
     17 C15        -8.3721    7.0714   -8.0522 C.ar      1 <0>        -0.0829
     18 C16        -9.1966    7.4418   -9.0933 C.ar      1 <0>        -0.1072
     19 C17        -9.2477    6.6779  -10.2463 C.ar      1 <0>        -0.0892
     20 C18        -8.4719    5.5367  -10.3641 C.ar      1 <0>        -0.0394
     21 C19        -7.6377    5.1561   -9.3324 C.ar      1 <0>        -0.0888
     22 Cl1        -8.5438    4.5866  -11.8153 Cl        1 <0>        -0.0580
     23 N2          0.0254    1.4940   -0.0133 N.pl3     1 <0>        -0.4729
     24 C20         1.3881    2.0408   -0.0369 C.3       1 <0>         0.0529
     25 C21         2.1385    1.5984    1.2214 C.3       1 <0>        -0.1247
     26 C22         2.1831    0.0687    1.2719 C.3       1 <0>        -0.1318
     27 C23         0.7526   -0.4769    1.2466 C.3       1 <0>        -0.1169
     28 C24         0.0424    0.0256   -0.0124 C.3       1 <0>         0.0164
     29 H1         -2.6243    5.6960   -1.9313 H         1 <0>         0.1136
     30 H2         -0.8596    5.8588   -2.0974 H         1 <0>         0.0998
     31 H3         -1.8653    5.5615   -3.5357 H         1 <0>         0.0957
     32 H4         -0.3853    4.0431   -0.5394 H         1 <0>         0.1858
     33 H5         -3.1029    4.4448   -4.4230 H         1 <0>         0.1742
     34 H6         -3.8355    0.3822   -5.5344 H         1 <0>         0.1562
     35 H7         -2.5117   -0.4193   -3.6586 H         1 <0>         0.1553
     36 H8         -4.2988    2.4007   -7.0070 H         1 <0>         0.4231
     37 H9         -5.9877    3.8131   -8.0661 H         1 <0>         0.1376
     38 H10        -6.6616    6.1128   -6.1547 H         1 <0>         0.1436
     39 H11        -8.3339    7.6686   -7.1532 H         1 <0>         0.1380
     40 H12        -9.8040    8.3309   -9.0090 H         1 <0>         0.1415
     41 H13        -9.8955    6.9734  -11.0583 H         1 <0>         0.1405
     42 H14        -7.0297    4.2685   -9.4269 H         1 <0>         0.1381
     43 H15         1.9114    1.6737   -0.9198 H         1 <0>         0.0717
     44 H16         1.3421    3.1293   -0.0685 H         1 <0>         0.1057
     45 H17         1.6233    1.9768    2.1043 H         1 <0>         0.0845
     46 H18         3.1548    1.9915    1.1960 H         1 <0>         0.0925
     47 H19         2.6788   -0.2512    2.1884 H         1 <0>         0.0845
     48 H20         2.7321   -0.3084    0.4090 H         1 <0>         0.0687
     49 H21         0.2156   -0.1312    2.1299 H         1 <0>         0.0852
     50 H22         0.7789   -1.5666    1.2392 H         1 <0>         0.0906
     51 H23        -0.9810   -0.3495   -0.0263 H         1 <0>         0.0941
     52 H24         0.5721   -0.3320   -0.8954 H         1 <0>         0.0726
     53 N3         -1.2875    1.0566   -1.8900 N.ar      1 <0>        -0.5440
     54 H25        -1.1689    0.0483   -1.7370 H         1 <0>         0.4623
@<TRIPOS>BOND
     1    1    2 1
     2    1   29 1
     3    1   30 1
     4    1   31 1
     5    2    6 ar
     6    2    3 ar
     7    3    4 ar
     8    3   32 1
     9    4   23 1
    10    4   53 ar
    11    5   10 ar
    12    5    6 ar
    13    5   53 ar
    14    6    7 ar
    15    7    8 ar
    16    7   33 1
    17    8    9 ar
    18    8   11 1
    19    9   10 ar
    20    9   34 1
    21   10   35 1
    22   11   12 am
    23   11   36 1
    24   12   13 2
    25   12   14 1
    26   14   15 2
    27   14   37 1
    28   15   16 1
    29   15   38 1
    30   16   21 ar
    31   16   17 ar
    32   17   18 ar
    33   17   39 1
    34   18   19 ar
    35   18   40 1
    36   19   20 ar
    37   19   41 1
    38   20   21 ar
    39   20   22 1
    40   21   42 1
    41   23   28 1
    42   23   24 1
    43   24   25 1
    44   24   43 1
    45   24   44 1
    46   25   26 1
    47   25   45 1
    48   25   46 1
    49   26   27 1
    50   26   47 1
    51   26   48 1
    52   27   28 1
    53   27   49 1
    54   27   50 1
    55   28   51 1
    56   28   52 1
    57   53   54 1
