@<TRIPOS>MOLECULE
ZINC21811949
   37    39     0     0     0
SMALL
USER_CHARGES
N-[(1R,2R)-2-methylcyclohexyl]-1H-indol-5-amine
@<TRIPOS>ATOM
      1 C1         -2.8020    6.4921   -1.9795 C.3       1 <0>        -0.1470
      2 C2         -2.5471    6.9502   -0.5421 C.3       1 <0>        -0.0948
      3 H1         -3.4527    6.7874    0.0607 H         1 <0>         0.0738
      4 C3         -2.1914    8.4383   -0.5366 C.3       1 <0>        -0.1130
      5 C4         -1.9365    8.8964    0.9008 C.3       1 <0>        -0.1227
      6 C5         -0.7776    8.0928    1.4943 C.3       1 <0>        -0.1192
      7 C6         -1.1334    6.6047    1.4887 C.3       1 <0>        -0.1348
      8 C7         -1.3883    6.1466    0.0513 C.3       1 <0>         0.1643
      9 H2         -0.4815    6.2654   -0.5599 H         1 <0>         0.0745
     10 N1         -1.7289    4.7218    0.0461 N.pl3     1 <0>        -0.7579
     11 C8         -0.7128    3.7594    0.0303 C.ar      1 <0>         0.2021
     12 C9          0.6228    4.1593    0.0197 C.ar      1 <0>        -0.1681
     13 C10         1.6339    3.2254    0.0042 C.ar      1 <0>        -0.0855
     14 C11         1.3279    1.8684   -0.0006 C.ar      1 <0>         0.0360
     15 C12        -0.0178    1.4607    0.0101 C.ar      1 <0>        -0.0609
     16 C13        -1.0367    2.4158    0.0300 C.ar      1 <0>        -0.1678
     17 C14         0.0021   -0.0041    0.0020 C.2       1 <0>        -0.2283
     18 C15         1.2908   -0.3797   -0.0123 C.2       1 <0>         0.0719
     19 N2          2.0985    0.7243   -0.0141 N.pl3     1 <0>        -0.6113
     20 H3          3.1958    0.8004   -0.0242 H         1 <0>         0.4375
     21 H4         -3.6352    7.0699   -2.4062 H         1 <0>         0.0543
     22 H5         -3.0577    5.4223   -1.9835 H         1 <0>         0.0588
     23 H6         -1.8963    6.6549   -2.5822 H         1 <0>         0.0537
     24 H7         -1.2858    8.6010   -1.1394 H         1 <0>         0.0640
     25 H8         -3.0246    9.0160   -0.9633 H         1 <0>         0.0662
     26 H9         -1.6808    9.9663    0.9048 H         1 <0>         0.0634
     27 H10        -2.8421    8.7337    1.5036 H         1 <0>         0.0624
     28 H11         0.1280    8.2556    0.8915 H         1 <0>         0.0619
     29 H12        -0.5943    8.4222    2.5277 H         1 <0>         0.0635
     30 H13        -0.3003    6.0269    1.9154 H         1 <0>         0.0648
     31 H14        -2.0391    6.4419    2.0915 H         1 <0>         0.0643
     32 H15        -2.7832    4.4083    0.0546 H         1 <0>         0.4124
     33 H16         0.8663    5.2115    0.0233 H         1 <0>         0.1220
     34 H17         2.6651    3.5463   -0.0040 H         1 <0>         0.1166
     35 H18        -2.0714    2.1063    0.0430 H         1 <0>         0.1161
     36 H19        -0.8574   -0.6580    0.0064 H         1 <0>         0.1420
     37 H20         1.6385   -1.4022   -0.0211 H         1 <0>         0.1653
@<TRIPOS>BOND
     1    1    2 1
     2    1   21 1
     3    1   22 1
     4    1   23 1
     5    2    3 1
     6    2    8 1
     7    2    4 1
     8    4    5 1
     9    4   24 1
    10    4   25 1
    11    5    6 1
    12    5   26 1
    13    5   27 1
    14    6    7 1
    15    6   28 1
    16    6   29 1
    17    7    8 1
    18    7   30 1
    19    7   31 1
    20    8    9 1
    21    8   10 1
    22   10   11 1
    23   10   32 1
    24   11   16 ar
    25   11   12 ar
    26   12   13 ar
    27   12   33 1
    28   13   14 ar
    29   13   34 1
    30   14   19 1
    31   14   15 ar
    32   15   16 ar
    33   15   17 1
    34   16   35 1
    35   17   18 2
    36   17   36 1
    37   18   19 1
    38   18   37 1
    39   19   20 1
