@<TRIPOS>MOLECULE
ZINC51002027
   39    41     0     0     0
SMALL
NO_CHARGES

@<TRIPOS>ATOM
      1 C1         -0.0127    1.0858    0.0080 C.3       1 <0>         0.0717
      2 N1         -0.7213    1.5711   -1.1789 N.pl3     1 <0>        -0.3487
      3 C2         -0.1313    1.8434   -2.3944 C.cat     1 <0>        -0.0156
      4 C3         -1.2743    2.3093   -3.2761 C.3       1 <0>         0.2764
      5 N2         -2.4500    2.2396   -2.3946 N.pl3     1 <0>        -0.6668
      6 C4         -2.0642    1.8142   -1.2439 C.cat     1 <0>         0.0207
      7 C5         -3.0000    1.6091   -0.0806 C.3       1 <0>         0.0092
      8 C6         -3.5129    0.1543   -0.0651 C.3       1 <0>        -0.1189
      9 C7         -4.9861    0.2758    0.3973 C.3       1 <0>        -0.1263
     10 C8         -5.4598    1.5712   -0.3076 C.3       1 <0>        -0.1253
     11 C9         -4.2379    2.5100   -0.2348 C.3       1 <0>        -0.1179
     12 C10        -1.4422    1.3869   -4.4559 C.ar      1 <0>        -0.0751
     13 C11        -2.4322    0.4221   -4.4437 C.ar      1 <0>        -0.1032
     14 C12        -2.5866   -0.4237   -5.5260 C.ar      1 <0>        -0.1031
     15 C13        -1.7511   -0.3052   -6.6212 C.ar      1 <0>        -0.1246
     16 C14        -0.7611    0.6589   -6.6343 C.ar      1 <0>        -0.0895
     17 C15        -0.6096    1.5091   -5.5534 C.ar      1 <0>        -0.0899
     18 Br1         0.7403    2.8333   -5.5737 Br        1 <0>        -0.0480
     19 N3          1.1162    1.7281   -2.7117 N.pl3     1 <0>        -0.8279
     20 H1          0.0021   -0.0041    0.0020 H         1 <0>         0.0734
     21 H2          1.0099    1.4631    0.0003 H         1 <0>         0.0799
     22 H3         -0.5229    1.4373    0.9048 H         1 <0>         0.0850
     23 H4         -2.4878    1.8352    0.8546 H         1 <0>         0.0701
     24 H5         -3.4610   -0.2791   -1.0639 H         1 <0>         0.0674
     25 H6         -2.9393   -0.4449    0.6421 H         1 <0>         0.0594
     26 H7         -5.5685   -0.5820    0.0610 H         1 <0>         0.0644
     27 H8         -5.0435    0.3824    1.4805 H         1 <0>         0.0656
     28 H9         -5.7224    1.3665   -1.3455 H         1 <0>         0.0639
     29 H10        -6.3071    2.0060    0.2226 H         1 <0>         0.0646
     30 H11        -4.3270    3.1727    0.6260 H         1 <0>         0.0663
     31 H12        -4.1618    3.0955   -1.1510 H         1 <0>         0.0662
     32 H13        -3.0849    0.3290   -3.5883 H         1 <0>         0.1302
     33 H14        -3.3599   -1.1775   -5.5159 H         1 <0>         0.1253
     34 H15        -1.8719   -0.9665   -7.4665 H         1 <0>         0.1286
     35 H16        -0.1085    0.7514   -7.4898 H         1 <0>         0.1302
     36 H17         1.7572    1.4166   -2.0537 H         1 <0>         0.3813
     37 H18        -1.1056    3.3323   -3.6125 H         1 <0>         0.0572
     38 H19        -3.3596    2.4706   -2.6401 H         1 <0>         0.4216
     39 H20         1.4115    1.9531   -3.6079 H         1 <0>         0.4021
@<TRIPOS>BOND
     1    1   20 1
     2    1   21 1
     3    1   22 1
     4    1    2 1
     5    2    6 1
     6    2    3 1
     7    3    4 1
     8    3   19 2
     9    4   12 1
    10    4   37 1
    11    4    5 1
    12    5    6 2
    13    5   38 1
    14    6    7 1
    15    7   11 1
    16    7    8 1
    17    7   23 1
    18    8    9 1
    19    8   24 1
    20    8   25 1
    21    9   10 1
    22    9   26 1
    23    9   27 1
    24   10   11 1
    25   10   28 1
    26   10   29 1
    27   11   30 1
    28   11   31 1
    29   12   17 ar
    30   12   13 ar
    31   13   14 ar
    32   13   32 1
    33   14   15 ar
    34   14   33 1
    35   15   16 ar
    36   15   34 1
    37   16   17 ar
    38   16   35 1
    39   17   18 1
    40   19   36 1
    41   19   39 1
