@<TRIPOS>MOLECULE
ZINC19845737
   25    26     0     0     0
SMALL
USER_CHARGES
2-(3-bromophenoxy)-3-chloro-aniline
@<TRIPOS>ATOM
      1 C1         -0.0126    1.0758    0.0080 C.ar      1 <0>        -0.0759
      2 C2          1.1748    1.7821    0.0004 C.ar      1 <0>        -0.1319
      3 C3          1.1559    3.1695    0.0076 C.ar      1 <0>         0.1233
      4 C4         -0.0565    3.8445    0.0223 C.ar      1 <0>        -0.1617
      5 C5         -1.2415    3.1336    0.0298 C.ar      1 <0>        -0.0533
      6 C6         -1.2194    1.7499    0.0173 C.ar      1 <0>        -0.1254
      7 Br1        -2.8944    4.0520    0.0493 Br        1 <0>        -0.0443
      8 O1          2.3225    3.8660   -0.0003 O.3       1 <0>        -0.2357
      9 C7          2.2552    5.2244    0.0072 C.ar      1 <0>        -0.0129
     10 C8          2.2147    5.9284   -1.1945 C.ar      1 <0>         0.2437
     11 C9          2.1398    7.3135   -1.1806 C.ar      1 <0>        -0.1955
     12 C10         2.1180    7.9926    0.0234 C.ar      1 <0>        -0.0466
     13 C11         2.1640    7.2947    1.2156 C.ar      1 <0>        -0.1689
     14 C12         2.2325    5.9123    1.2102 C.ar      1 <0>         0.0095
     15 Cl1         2.2906    5.0402    2.7101 Cl        1 <0>        -0.0501
     16 N1          2.2431    5.2396   -2.4123 N.pl3     1 <0>        -0.8834
     17 H1          0.0021   -0.0041    0.0020 H         1 <0>         0.1411
     18 H2          2.1172    1.2547   -0.0107 H         1 <0>         0.1390
     19 H3         -0.0739    4.9244    0.0276 H         1 <0>         0.1353
     20 H4         -2.1464    1.1958    0.0187 H         1 <0>         0.1354
     21 H5          2.1034    7.8617   -2.1105 H         1 <0>         0.1341
     22 H6          2.0646    9.0713    0.0325 H         1 <0>         0.1375
     23 H7          2.1460    7.8294    2.1538 H         1 <0>         0.1378
     24 H8          2.2111    5.7968   -3.3602 H         1 <0>         0.4251
     25 H9          2.2975    4.1410   -2.4217 H         1 <0>         0.4237
@<TRIPOS>BOND
     1    1    6 ar
     2    1    2 ar
     3    1   17 1
     4    2    3 ar
     5    2   18 1
     6    3    4 ar
     7    3    8 1
     8    4    5 ar
     9    4   19 1
    10    5    6 ar
    11    5    7 1
    12    6   20 1
    13    8    9 1
    14    9   14 ar
    15    9   10 ar
    16   10   11 ar
    17   10   16 1
    18   11   12 ar
    19   11   21 1
    20   12   13 ar
    21   12   22 1
    22   13   14 ar
    23   13   23 1
    24   14   15 1
    25   16   24 1
    26   16   25 1
