@<TRIPOS>MOLECULE
ZINC38903958
   81    85     0     0     0
SMALL
USER_CHARGES

@<TRIPOS>ATOM
      1 C1         -0.0187    1.5258    0.0104 C.3       1 <0>        -0.1418
      2 C2          0.0021   -0.0041    0.0020 C.3       1 <0>        -0.0377
      3 C3          0.7421   -0.5109    1.2415 C.3       1 <0>        -0.1411
      4 C4         -1.4333   -0.5336    0.0129 C.3       1 <0>        -0.1500
      5 C5          0.7074   -0.4901   -1.2379 C.ar      1 <0>        -0.0241
      6 C6          0.0333   -1.2847   -2.1474 C.ar      1 <0>        -0.1239
      7 C7          0.6745   -1.7326   -3.2847 C.ar      1 <0>        -0.0651
      8 C8          2.0032   -1.3829   -3.5156 C.ar      1 <0>        -0.0700
      9 C9          2.6775   -0.5822   -2.5961 C.ar      1 <0>        -0.0574
     10 C10         2.0249   -0.1352   -1.4650 C.ar      1 <0>        -0.1213
     11 C11         2.6981   -1.8619   -4.7365 C.2       1 <0>         0.3120
     12 N1          3.9749   -1.5980   -5.0671 N.2       1 <0>        -0.4849
     13 C12         4.2696   -2.1698   -6.1997 C.2       1 <0>         0.2203
     14 O1          3.1872   -2.8248   -6.6390 O.3       1 <0>        -0.0871
     15 N2          2.1717   -2.6170   -5.6688 N.2       1 <0>        -0.2947
     16 C13         5.6033   -2.1048   -6.8982 C.3       1 <0>         0.0962
     17 N3          6.4481   -3.2179   -6.4454 N.4       1 <0>        -0.3839
     18 C14         5.8441   -4.4894   -6.8614 C.3       1 <0>        -0.0206
     19 C15         6.6769   -5.6545   -6.3227 C.3       1 <0>        -0.1395
     20 C16         8.1003   -5.5576   -6.8792 C.3       1 <0>        -0.1311
     21 C17         8.6937   -4.1971   -6.5023 C.3       1 <0>        -0.1309
     22 H1          8.7663   -4.1196   -5.4175 H         1 <0>         0.1235
     23 C18         7.7861   -3.0859   -7.0343 C.3       1 <0>         0.0112
     24 C19        10.0662   -4.0610   -7.1095 C.2       1 <0>         0.5238
     25 O2         10.2980   -3.1611   -7.8889 O.2       1 <0>        -0.5288
     26 N4         11.0361   -4.9394   -6.7866 N.am      1 <0>        -0.7117
     27 C20        12.3703   -4.8071   -7.3769 C.3       1 <0>         0.1628
     28 C21        13.2614   -5.9050   -6.8556 C.ar      1 <0>        -0.1210
     29 C22        13.9989   -5.7080   -5.7029 C.ar      1 <0>        -0.0977
     30 C23        14.8161   -6.7150   -5.2248 C.ar      1 <0>        -0.1176
     31 C24        14.8956   -7.9194   -5.8991 C.ar      1 <0>        -0.0996
     32 C25        14.1576   -8.1166   -7.0509 C.ar      1 <0>        -0.0763
     33 C26        13.3369   -7.1109   -7.5268 C.ar      1 <0>        -0.0769
     34 C27        14.2447   -9.4293   -7.7861 C.3       1 <0>         0.0890
     35 N5         13.2235  -10.3493   -7.2679 N.3       1 <0>        -0.5313
     36 C28        13.5054  -10.7179   -5.8730 C.3       1 <0>         0.0121
     37 C29        12.3880  -11.6274   -5.3552 C.3       1 <0>         0.0647
     38 O3         12.2787  -12.7717   -6.2061 O.3       1 <0>        -0.3830
     39 C30        12.0038  -12.4493   -7.5721 C.3       1 <0>         0.0642
     40 C31        13.1174  -11.5482   -8.1123 C.3       1 <0>         0.0151
     41 H2          1.0039    1.9031    0.0027 H         1 <0>         0.0591
     42 H3         -0.5459    1.8868   -0.8726 H         1 <0>         0.0588
     43 H4         -0.5289    1.8773    0.9072 H         1 <0>         0.0661
     44 H5          0.2319   -0.1594    2.1383 H         1 <0>         0.0660
     45 H6          0.7568   -1.6008    1.2356 H         1 <0>         0.0581
     46 H7          1.7647   -0.1336    1.2338 H         1 <0>         0.0589
     47 H8         -1.9605   -0.1726   -0.8702 H         1 <0>         0.0613
     48 H9         -1.4185   -1.6235    0.0069 H         1 <0>         0.0609
     49 H10        -1.9435   -0.1821    0.9097 H         1 <0>         0.0657
     50 H11        -0.9966   -1.5555   -1.9673 H         1 <0>         0.1422
     51 H12         0.1473   -2.3533   -3.9940 H         1 <0>         0.1331
     52 H13         3.7077   -0.3085   -2.7700 H         1 <0>         0.1370
     53 H14         2.5453    0.4891   -0.7537 H         1 <0>         0.1363
     54 H15         5.4533   -2.1774   -7.9754 H         1 <0>         0.1717
     55 H16         6.0913   -1.1590   -6.6623 H         1 <0>         0.1799
     56 H17         4.8300   -4.5554   -6.4673 H         1 <0>         0.1288
     57 H18         5.8137   -4.5377   -7.9499 H         1 <0>         0.1419
     58 H19         6.7077   -5.6073   -5.2342 H         1 <0>         0.0921
     59 H20         6.2278   -6.5976   -6.6342 H         1 <0>         0.1225
     60 H21         8.7128   -6.3528   -6.4541 H         1 <0>         0.1023
     61 H22         8.0749   -5.6561   -7.9645 H         1 <0>         0.0934
     62 H23         7.7144   -3.1641   -8.1191 H         1 <0>         0.1466
     63 H24         8.2058   -2.1158   -6.7679 H         1 <0>         0.1478
     64 H25        10.8507   -5.6591   -6.1633 H         1 <0>         0.4059
     65 H26        12.2969   -4.8831   -8.4617 H         1 <0>         0.0830
     66 H27        12.7921   -3.8386   -7.1082 H         1 <0>         0.0831
     67 H28        13.9368   -4.7672   -5.1763 H         1 <0>         0.1239
     68 H29        15.3928   -6.5608   -4.3248 H         1 <0>         0.1279
     69 H30        15.5347   -8.7059   -5.5259 H         1 <0>         0.1233
     70 H31        12.7573   -7.2664   -8.4247 H         1 <0>         0.1243
     71 H32        14.0767   -9.2617   -8.8499 H         1 <0>         0.0876
     72 H33        15.2335   -9.8635   -7.6384 H         1 <0>         0.0493
     73 H34        14.4577  -11.2459   -5.8214 H         1 <0>         0.0456
     74 H35        13.5544   -9.8171   -5.2613 H         1 <0>         0.0887
     75 H36        12.6215  -11.9494   -4.3404 H         1 <0>         0.0991
     76 H37        11.4445  -11.0815   -5.3565 H         1 <0>         0.0568
     77 H38        11.9595  -13.3657   -8.1605 H         1 <0>         0.1012
     78 H39        11.0491  -11.9273   -7.6378 H         1 <0>         0.0585
     79 H40        12.8830  -11.2534   -9.1351 H         1 <0>         0.0885
     80 H41        14.0634  -12.0894   -8.0964 H         1 <0>         0.0473
     81 H42         6.5210   -3.1958   -5.4392 H         1 <0>         0.4296
@<TRIPOS>BOND
     1    1    2 1
     2    1   41 1
     3    1   42 1
     4    1   43 1
     5    2    3 1
     6    2    4 1
     7    2    5 1
     8    3   44 1
     9    3   45 1
    10    3   46 1
    11    4   47 1
    12    4   48 1
    13    4   49 1
    14    5   10 ar
    15    5    6 ar
    16    6    7 ar
    17    6   50 1
    18    7    8 ar
    19    7   51 1
    20    8    9 ar
    21    8   11 1
    22    9   10 ar
    23    9   52 1
    24   10   53 1
    25   11   15 2
    26   11   12 1
    27   12   13 2
    28   13   14 1
    29   13   16 1
    30   14   15 1
    31   16   17 1
    32   16   54 1
    33   16   55 1
    34   17   23 1
    35   17   18 1
    36   17   81 1
    37   18   19 1
    38   18   56 1
    39   18   57 1
    40   19   20 1
    41   19   58 1
    42   19   59 1
    43   20   21 1
    44   20   60 1
    45   20   61 1
    46   21   22 1
    47   21   23 1
    48   21   24 1
    49   23   62 1
    50   23   63 1
    51   24   25 2
    52   24   26 am
    53   26   27 1
    54   26   64 1
    55   27   28 1
    56   27   65 1
    57   27   66 1
    58   28   33 ar
    59   28   29 ar
    60   29   30 ar
    61   29   67 1
    62   30   31 ar
    63   30   68 1
    64   31   32 ar
    65   31   69 1
    66   32   33 ar
    67   32   34 1
    68   33   70 1
    69   34   35 1
    70   34   71 1
    71   34   72 1
    72   35   40 1
    73   35   36 1
    74   36   37 1
    75   36   73 1
    76   36   74 1
    77   37   38 1
    78   37   75 1
    79   37   76 1
    80   38   39 1
    81   39   40 1
    82   39   77 1
    83   39   78 1
    84   40   79 1
    85   40   80 1
