@<TRIPOS>MOLECULE
ZINC61533783
   43    45     0     0     0
SMALL
USER_CHARGES

@<TRIPOS>ATOM
      1 C1          0.3099    1.7279    0.1618 C.3       1 <0>        -0.1671
      2 C2         -0.1960    0.3716   -0.3338 C.3       1 <0>         0.1123
      3 N1          0.5525   -0.0213   -1.5302 N.am      1 <0>        -0.7308
      4 C3          0.2767   -1.1888   -2.1445 C.2       1 <0>         0.5198
      5 O1         -0.5913   -1.9140   -1.7069 O.2       1 <0>        -0.5323
      6 C4          1.0467   -1.5929   -3.3753 C.3       1 <0>        -0.1231
      7 C5          0.5439   -2.9514   -3.8692 C.3       1 <0>        -0.1012
      8 C6          1.3026   -3.3476   -5.1379 C.3       1 <0>        -0.1332
      9 C7          2.7955   -3.4719   -4.8174 C.3       1 <0>         0.0810
     10 N2          3.2543   -2.2167   -4.2071 N.am      1 <0>        -0.6084
     11 C8          2.5367   -1.6974   -3.0349 C.3       1 <0>         0.1236
     12 C9          4.3136   -1.5543   -4.7126 C.2       1 <0>         0.5881
     13 O2          4.6085   -0.4568   -4.2785 O.2       1 <0>        -0.5139
     14 C10         5.1129   -2.1582   -5.7889 C.2       1 <0>         0.0232
     15 C11         5.8756   -1.4749   -6.6820 C.2       1 <0>        -0.1019
     16 C12         6.4787   -2.4203   -7.5462 C.ar      1 <0>        -0.1063
     17 C13         7.3498   -2.3072   -8.6379 C.ar      1 <0>        -0.0499
     18 C14         7.7701   -3.4292   -9.2900 C.ar      1 <0>        -0.1228
     19 C15         7.3418   -4.6875   -8.8820 C.ar      1 <0>        -0.0574
     20 C16         6.4851   -4.8243   -7.8118 C.ar      1 <0>        -0.0996
     21 C17         6.0434   -3.6938   -7.1302 C.ar      1 <0>         0.1125
     22 N3          5.2130   -3.5114   -6.0496 N.pl3     1 <0>        -0.5778
     23 H1          4.7684   -4.2166   -5.5536 H         1 <0>         0.4234
     24 Br1         7.9402   -6.2255   -9.8051 Br        1 <0>        -0.0409
     25 H2          1.3699    1.6537    0.4045 H         1 <0>         0.0631
     26 H3          0.1672    2.4759   -0.6180 H         1 <0>         0.0627
     27 H4         -0.2471    2.0202    1.0520 H         1 <0>         0.0758
     28 H5         -0.0533   -0.3764    0.4461 H         1 <0>         0.0687
     29 H6         -1.2561    0.4458   -0.5765 H         1 <0>         0.0685
     30 H7          1.2467    0.5588   -1.8803 H         1 <0>         0.4025
     31 H8          0.9034   -0.8457   -4.1558 H         1 <0>         0.1048
     32 H9          0.7101   -3.7027   -3.0971 H         1 <0>         0.0753
     33 H10        -0.5218   -2.8862   -4.0888 H         1 <0>         0.0797
     34 H11         0.9278   -4.3041   -5.5022 H         1 <0>         0.0865
     35 H12         1.1570   -2.5842   -5.9022 H         1 <0>         0.0728
     36 H13         2.9523   -4.2956   -4.1209 H         1 <0>         0.0787
     37 H14         3.3523   -3.6565   -5.7361 H         1 <0>         0.0947
     38 H15         2.9227   -0.7111   -2.7774 H         1 <0>         0.1015
     39 H16         2.6724   -2.3764   -2.1930 H         1 <0>         0.0788
     40 H17         5.9992   -0.4029   -6.7252 H         1 <0>         0.1601
     41 H18         7.6874   -1.3340   -8.9625 H         1 <0>         0.1374
     42 H19         8.4415   -3.3394  -10.1312 H         1 <0>         0.1367
     43 H20         6.1571   -5.8057   -7.5025 H         1 <0>         0.1343
@<TRIPOS>BOND
     1    1    2 1
     2    1   25 1
     3    1   26 1
     4    1   27 1
     5    2    3 1
     6    2   28 1
     7    2   29 1
     8    3    4 am
     9    3   30 1
    10    4    5 2
    11    4    6 1
    12    6   11 1
    13    6    7 1
    14    6   31 1
    15    7    8 1
    16    7   32 1
    17    7   33 1
    18    8    9 1
    19    8   34 1
    20    8   35 1
    21    9   10 1
    22    9   36 1
    23    9   37 1
    24   10   11 1
    25   10   12 am
    26   11   38 1
    27   11   39 1
    28   12   13 2
    29   12   14 1
    30   14   22 1
    31   14   15 2
    32   15   16 1
    33   15   40 1
    34   16   21 ar
    35   16   17 ar
    36   17   18 ar
    37   17   41 1
    38   18   19 ar
    39   18   42 1
    40   19   20 ar
    41   19   24 1
    42   20   21 ar
    43   20   43 1
    44   21   22 1
    45   22   23 1
