@<TRIPOS>MOLECULE
ZINC65508530
   35    37     0     0     0
SMALL
USER_CHARGES

@<TRIPOS>ATOM
      1 C1         -0.0184    1.5028    0.0103 C.3       1 <0>        -0.1026
      2 C2          0.0021   -0.0041    0.0020 C.ar      1 <0>        -0.2041
      3 C3          0.0060   -0.6960   -1.1931 C.ar      1 <0>        -0.0031
      4 C4          0.0257   -2.0950   -1.1522 C.ar      1 <0>        -0.1523
      5 C5          0.0405   -2.7358    0.0840 C.ar      1 <0>         0.1632
      6 N1          0.0362   -2.0391    1.2026 N.ar      1 <0>        -0.5410
      7 C6          0.0231   -0.7145    1.1988 C.ar      1 <0>         0.4092
      8 N2          0.0251   -0.0254    2.4053 N.pl3     1 <0>        -0.8493
      9 C7          0.0301   -2.8837   -2.4078 C.ar      1 <0>        -0.0869
     10 C8          0.9557   -3.8967   -2.5921 C.ar      1 <0>        -0.0221
     11 C9          0.9185   -4.6164   -3.8008 C.ar      1 <0>        -0.1282
     12 C10         1.8268   -5.6572   -4.0551 C.ar      1 <0>        -0.0821
     13 C11         1.7628   -6.3337   -5.2353 C.ar      1 <0>        -0.1295
     14 C12         0.8075   -6.0063   -6.1948 C.ar      1 <0>        -0.0885
     15 C13        -0.0879   -5.0033   -5.9809 C.ar      1 <0>        -0.1076
     16 C14        -0.0544   -4.2821   -4.7753 C.ar      1 <0>         0.1679
     17 N3         -0.9257   -3.2927   -4.5445 N.ar      1 <0>        -0.5378
     18 C15        -0.9124   -2.6116   -3.4215 C.ar      1 <0>         0.3613
     19 O1         -1.8204   -1.6230   -3.2347 O.3       1 <0>        -0.2999
     20 C16        -2.7519   -1.3893   -4.2929 C.3       1 <0>         0.0376
     21 H1          1.0042    1.8801    0.0026 H         1 <0>         0.0690
     22 H2         -0.5455    1.8639   -0.8728 H         1 <0>         0.0706
     23 H3         -0.5286    1.8543    0.9071 H         1 <0>         0.0621
     24 H4         -0.0063   -0.1704   -2.1365 H         1 <0>         0.1333
     25 H5          0.0554   -3.8149    0.1265 H         1 <0>         0.1558
     26 H6          0.0119    0.9445    2.4099 H         1 <0>         0.4082
     27 H7          0.0397   -0.5141    3.2431 H         1 <0>         0.4045
     28 H8          1.6856   -4.1277   -1.8303 H         1 <0>         0.1493
     29 H9          2.5721   -5.9194   -3.3188 H         1 <0>         0.1313
     30 H10         2.4616   -7.1338   -5.4298 H         1 <0>         0.1283
     31 H11         0.7770   -6.5567   -7.1235 H         1 <0>         0.1302
     32 H12        -0.8219   -4.7625   -6.7357 H         1 <0>         0.1342
     33 H13        -3.3352   -2.2930   -4.4696 H         1 <0>         0.0606
     34 H14        -3.4201   -0.5741   -4.0153 H         1 <0>         0.0975
     35 H15        -2.2110   -1.1225   -5.2008 H         1 <0>         0.0608
@<TRIPOS>BOND
     1    1    2 1
     2    1   21 1
     3    1   22 1
     4    1   23 1
     5    2    7 ar
     6    2    3 ar
     7    3    4 ar
     8    3   24 1
     9    4    5 ar
    10    4    9 1
    11    5    6 ar
    12    5   25 1
    13    6    7 ar
    14    7    8 1
    15    8   26 1
    16    8   27 1
    17    9   18 ar
    18    9   10 ar
    19   10   11 ar
    20   10   28 1
    21   11   16 ar
    22   11   12 ar
    23   12   13 ar
    24   12   29 1
    25   13   14 ar
    26   13   30 1
    27   14   15 ar
    28   14   31 1
    29   15   16 ar
    30   15   32 1
    31   16   17 ar
    32   17   18 ar
    33   18   19 1
    34   19   20 1
    35   20   33 1
    36   20   34 1
    37   20   35 1
