@<TRIPOS>MOLECULE
ZINC40702317
   56    59     0     0     0
SMALL
USER_CHARGES

@<TRIPOS>ATOM
      1 C1          0.6832    0.8616    0.0436 C.3       1 <0>        -0.1327
      2 C2          0.4796   -0.6588   -0.0450 C.3       1 <0>        -0.0678
      3 C3          0.9744   -1.2433   -1.3965 C.3       1 <0>        -0.1259
      4 C4          0.2155   -2.5939   -1.3868 C.3       1 <0>         0.1556
      5 H1          0.1549   -3.0310   -2.3917 H         1 <0>         0.0982
      6 C5          0.9364   -3.5114   -0.4023 C.3       1 <0>        -0.1168
      7 C6          1.0832   -2.9263    0.9905 C.3       1 <0>        -0.0506
      8 C7          1.2013   -1.4159    1.0682 C.3       1 <0>        -0.0961
      9 C8          2.3803   -3.5175    1.5979 C.3       1 <0>        -0.1475
     10 C9         -0.0709   -3.4103    1.8809 C.3       1 <0>        -0.1417
     11 N1         -1.1245   -2.2729   -0.8565 N.pl3     1 <0>        -0.5970
     12 C10        -1.0146   -1.0522   -0.0431 C.3       1 <0>         0.1170
     13 C11        -2.2906   -2.9911   -1.0922 C.ar      1 <0>         0.4337
     14 C12        -3.5081   -2.5605   -0.5610 C.ar      1 <0>         0.0068
     15 C13        -4.6490   -3.3188   -0.8288 C.ar      1 <0>         0.3843
     16 N2         -4.5339   -4.4154   -1.5748 N.ar      1 <0>        -0.5660
     17 C14        -3.3655   -4.7868   -2.0569 C.ar      1 <0>         0.3249
     18 N3         -2.2653   -4.0968   -1.8321 N.ar      1 <0>        -0.5675
     19 N4         -5.8861   -2.9351   -0.3240 N.pl3     1 <0>        -0.6427
     20 C15        -7.0008   -3.7640   -0.4981 C.ar      1 <0>         0.1597
     21 C16        -6.8298   -5.1254   -0.7037 C.ar      1 <0>        -0.0908
     22 C17        -7.9327   -5.9422   -0.8749 C.ar      1 <0>        -0.0448
     23 C18        -9.2072   -5.4044   -0.8421 C.ar      1 <0>        -0.0993
     24 C19        -9.3842   -4.0483   -0.6379 C.ar      1 <0>        -0.1731
     25 C20        -8.2849   -3.2249   -0.4595 C.ar      1 <0>         0.0884
     26 O1         -8.4583   -1.8918   -0.2526 O.3       1 <0>        -0.3204
     27 C21        -9.8031   -1.4091   -0.2252 C.3       1 <0>         0.0285
     28 Cl1        -7.7176   -7.6455   -1.1322 Cl        1 <0>        -0.0672
     29 N5         -3.5826   -1.3968    0.2214 N.pl3     1 <0>        -0.8899
     30 H2          1.7461    1.0909   -0.0315 H         1 <0>         0.0661
     31 H3          0.1481    1.3480   -0.7720 H         1 <0>         0.0616
     32 H4          0.2997    1.2246    0.9972 H         1 <0>         0.0606
     33 H5          0.6664   -0.6190   -2.2347 H         1 <0>         0.0750
     34 H6          2.0538   -1.3924   -1.3926 H         1 <0>         0.0883
     35 H7          0.3943   -4.4657   -0.3352 H         1 <0>         0.0681
     36 H8          1.9365   -3.7443   -0.7986 H         1 <0>         0.0685
     37 H9          2.2678   -1.1404    1.0515 H         1 <0>         0.0661
     38 H10         0.8099   -1.0773    2.0407 H         1 <0>         0.0622
     39 H11         3.2312   -3.2437    0.9741 H         1 <0>         0.0544
     40 H12         2.5243   -3.1213    2.6031 H         1 <0>         0.0531
     41 H13         2.2980   -4.6034    1.6437 H         1 <0>         0.0542
     42 H14        -0.0506   -4.4984    1.9425 H         1 <0>         0.0513
     43 H15         0.0388   -2.9877    2.8796 H         1 <0>         0.0499
     44 H16        -1.0200   -3.0884    1.4524 H         1 <0>         0.0563
     45 H17        -1.3705   -1.2234    0.9675 H         1 <0>         0.0774
     46 H18        -1.6038   -0.2542   -0.5052 H         1 <0>         0.0625
     47 H19        -3.3081   -5.6820   -2.6584 H         1 <0>         0.1961
     48 H20        -5.9770   -2.0930    0.1488 H         1 <0>         0.4186
     49 H21        -5.8358   -5.5471   -0.7305 H         1 <0>         0.1716
     50 H22       -10.0659   -6.0454   -0.9765 H         1 <0>         0.1348
     51 H23       -10.3803   -3.6316   -0.6135 H         1 <0>         0.1389
     52 H24        -9.7993   -0.3328   -0.0528 H         1 <0>         0.1012
     53 H25       -10.2852   -1.6225   -1.1792 H         1 <0>         0.0575
     54 H26       -10.3504   -1.9037    0.5772 H         1 <0>         0.0574
     55 H27        -2.8144   -0.8085    0.2900 H         1 <0>         0.4015
     56 H28        -4.4022   -1.1813    0.6933 H         1 <0>         0.3874
@<TRIPOS>BOND
     1    1    2 1
     2    1   30 1
     3    1   31 1
     4    1   32 1
     5    2    8 1
     6    2   12 1
     7    2    3 1
     8    3    4 1
     9    3   33 1
    10    3   34 1
    11    4    5 1
    12    4    6 1
    13    4   11 1
    14    6    7 1
    15    6   35 1
    16    6   36 1
    17    7    8 1
    18    7    9 1
    19    7   10 1
    20    8   37 1
    21    8   38 1
    22    9   39 1
    23    9   40 1
    24    9   41 1
    25   10   42 1
    26   10   43 1
    27   10   44 1
    28   11   12 1
    29   11   13 1
    30   12   45 1
    31   12   46 1
    32   13   18 ar
    33   13   14 ar
    34   14   15 ar
    35   14   29 1
    36   15   16 ar
    37   15   19 1
    38   16   17 ar
    39   17   18 ar
    40   17   47 1
    41   19   20 1
    42   19   48 1
    43   20   25 ar
    44   20   21 ar
    45   21   22 ar
    46   21   49 1
    47   22   23 ar
    48   22   28 1
    49   23   24 ar
    50   23   50 1
    51   24   25 ar
    52   24   51 1
    53   25   26 1
    54   26   27 1
    55   27   52 1
    56   27   53 1
    57   27   54 1
    58   29   55 1
    59   29   56 1
