@<TRIPOS>MOLECULE
ZINC36559764
   74    77     0     0     0
SMALL
USER_CHARGES

@<TRIPOS>ATOM
      1 C1          2.9156    1.9289   -2.3541 C.3       1 <0>        -0.1424
      2 C2          2.1568    0.6941   -1.8640 C.3       1 <0>        -0.1523
      3 C3          1.4382    0.0356   -3.0434 C.3       1 <0>         0.1119
      4 N1          0.7105   -1.1460   -2.5738 N.am      1 <0>        -0.5890
      5 C4         -0.7027   -1.0368   -2.2034 C.3       1 <0>         0.1732
      6 H1         -1.3070   -1.6162   -2.9014 H         1 <0>         0.1044
      7 C5         -0.8987   -1.5690   -0.8073 C.ar      1 <0>        -0.0368
      8 C6         -0.0468   -1.1762    0.2081 C.ar      1 <0>        -0.0911
      9 C7         -0.2266   -1.6644    1.4888 C.ar      1 <0>        -0.0537
     10 C8         -1.2585   -2.5451    1.7542 C.ar      1 <0>        -0.0412
     11 C9         -2.1109   -2.9372    0.7391 C.ar      1 <0>        -0.0534
     12 C10        -1.9338   -2.4456   -0.5407 C.ar      1 <0>        -0.0911
     13 N2         -1.4505   -3.0686    3.1254 N.pl3     1 <0>         0.0329
     14 O1         -0.7047   -2.7260    4.0132 O.2       1 <0>        -0.1569
     15 O2         -2.3530   -3.8389    3.3575 O.3       1 <0>        -0.1565
     16 C11        -1.1248    0.4090   -2.2537 C.2       1 <0>         0.5171
     17 O3         -0.4284    1.2621   -1.7456 O.2       1 <0>        -0.5056
     18 N3         -2.2762    0.7541   -2.8635 N.am      1 <0>        -0.7171
     19 C12        -2.6865    2.1596   -2.9124 C.3       1 <0>         0.1469
     20 C13        -3.4317    2.5184   -1.6252 C.3       1 <0>        -0.1289
     21 C14        -3.8603    3.9862   -1.6763 C.3       1 <0>        -0.1172
     22 C15        -4.7818    4.2070   -2.8775 C.3       1 <0>        -0.1233
     23 C16        -4.0366    3.8482   -4.1647 C.3       1 <0>        -0.1158
     24 C17        -3.6081    2.3803   -4.1136 C.3       1 <0>        -0.1267
     25 C18         1.3412   -2.3336   -2.4825 C.2       1 <0>         0.5781
     26 O4          0.7175   -3.3314   -2.1742 O.2       1 <0>        -0.5197
     27 C19         2.7847   -2.4233   -2.7559 C.2       1 <0>        -0.1057
     28 C20         3.2323   -2.4661   -4.0393 C.2       1 <0>        -0.0548
     29 C21         2.2776   -2.6191   -5.1455 C.ar      1 <0>        -0.0800
     30 C22         2.4184   -1.8519   -6.3077 C.ar      1 <0>        -0.0993
     31 C23         1.5185   -2.0020   -7.3412 C.ar      1 <0>        -0.1217
     32 C24         0.4779   -2.9082   -7.2319 C.ar      1 <0>        -0.1098
     33 C25         0.3312   -3.6705   -6.0858 C.ar      1 <0>        -0.1192
     34 C26         1.2257   -3.5369   -5.0453 C.ar      1 <0>        -0.1023
     35 C27         3.7495   -2.4668   -1.6334 C.ar      1 <0>        -0.0474
     36 C28         3.6535   -3.4670   -0.6657 C.ar      1 <0>        -0.0973
     37 C29         4.5555   -3.5021    0.3778 C.ar      1 <0>        -0.1168
     38 C30         5.5536   -2.5481    0.4656 C.ar      1 <0>        -0.1113
     39 C31         5.6538   -1.5533   -0.4907 C.ar      1 <0>        -0.1182
     40 C32         4.7617   -1.5111   -1.5424 C.ar      1 <0>        -0.1024
     41 H2          3.7054    1.6216   -3.0397 H         1 <0>         0.0491
     42 H3          2.2267    2.5977   -2.8699 H         1 <0>         0.0544
     43 H4          3.3555    2.4470   -1.5020 H         1 <0>         0.0568
     44 H5          2.8599   -0.0142   -1.4256 H         1 <0>         0.0642
     45 H6          1.4250    0.9917   -1.1129 H         1 <0>         0.0928
     46 H7          0.7358    0.7442   -3.4823 H         1 <0>         0.0816
     47 H8          2.1700   -0.2629   -3.7940 H         1 <0>         0.0786
     48 H9          0.7594   -0.4882    0.0007 H         1 <0>         0.1489
     49 H10         0.4393   -1.3581    2.2819 H         1 <0>         0.1534
     50 H11        -2.9169   -3.6255    0.9464 H         1 <0>         0.1559
     51 H12        -2.6020   -2.7490   -1.3331 H         1 <0>         0.1471
     52 H13        -2.8331    0.0718   -3.2699 H         1 <0>         0.4020
     53 H14        -1.8045    2.7924   -3.0100 H         1 <0>         0.0919
     54 H15        -4.3138    1.8855   -1.5276 H         1 <0>         0.0641
     55 H16        -2.7752    2.3611   -0.7694 H         1 <0>         0.0670
     56 H17        -4.3912    4.2418   -0.7592 H         1 <0>         0.0661
     57 H18        -2.9782    4.6191   -1.7739 H         1 <0>         0.0650
     58 H19        -5.6639    3.5741   -2.7799 H         1 <0>         0.0632
     59 H20        -5.0871    5.2527   -2.9139 H         1 <0>         0.0656
     60 H21        -4.6932    4.0054   -5.0205 H         1 <0>         0.0690
     61 H22        -3.1546    4.4810   -4.2623 H         1 <0>         0.0658
     62 H23        -3.0772    2.1247   -5.0306 H         1 <0>         0.0696
     63 H24        -4.4901    1.7474   -4.0160 H         1 <0>         0.0693
     64 H25         4.2895   -2.3877   -4.2453 H         1 <0>         0.1401
     65 H26         3.2296   -1.1442   -6.3943 H         1 <0>         0.1257
     66 H27         1.6255   -1.4105   -8.2385 H         1 <0>         0.1250
     67 H28        -0.2237   -3.0209   -8.0452 H         1 <0>         0.1229
     68 H29        -0.4837   -4.3751   -6.0084 H         1 <0>         0.1238
     69 H30         1.1126   -4.1359   -4.1538 H         1 <0>         0.1355
     70 H31         2.8746   -4.2120   -0.7330 H         1 <0>         0.1259
     71 H32         4.4820   -4.2757    1.1278 H         1 <0>         0.1250
     72 H33         6.2573   -2.5798    1.2843 H         1 <0>         0.1244
     73 H34         6.4349   -0.8112   -0.4165 H         1 <0>         0.1260
     74 H35         4.8438   -0.7370   -2.2910 H         1 <0>         0.1250
@<TRIPOS>BOND
     1    1    2 1
     2    1   41 1
     3    1   42 1
     4    1   43 1
     5    2    3 1
     6    2   44 1
     7    2   45 1
     8    3    4 1
     9    3   46 1
    10    3   47 1
    11    4    5 1
    12    4   25 am
    13    5    6 1
    14    5    7 1
    15    5   16 1
    16    7   12 ar
    17    7    8 ar
    18    8    9 ar
    19    8   48 1
    20    9   10 ar
    21    9   49 1
    22   10   11 ar
    23   10   13 1
    24   11   12 ar
    25   11   50 1
    26   12   51 1
    27   13   14 2
    28   13   15 1
    29   16   17 2
    30   16   18 am
    31   18   19 1
    32   18   52 1
    33   19   24 1
    34   19   20 1
    35   19   53 1
    36   20   21 1
    37   20   54 1
    38   20   55 1
    39   21   22 1
    40   21   56 1
    41   21   57 1
    42   22   23 1
    43   22   58 1
    44   22   59 1
    45   23   24 1
    46   23   60 1
    47   23   61 1
    48   24   62 1
    49   24   63 1
    50   25   26 2
    51   25   27 1
    52   27   28 2
    53   27   35 1
    54   28   29 1
    55   28   64 1
    56   29   34 ar
    57   29   30 ar
    58   30   31 ar
    59   30   65 1
    60   31   32 ar
    61   31   66 1
    62   32   33 ar
    63   32   67 1
    64   33   34 ar
    65   33   68 1
    66   34   69 1
    67   35   40 ar
    68   35   36 ar
    69   36   37 ar
    70   36   70 1
    71   37   38 ar
    72   37   71 1
    73   38   39 ar
    74   38   72 1
    75   39   40 ar
    76   39   73 1
    77   40   74 1
