@<TRIPOS>MOLECULE
ZINC35056905
   36    37     0     0     0
SMALL
USER_CHARGES

@<TRIPOS>ATOM
      1 C1         -0.0187    1.5258    0.0104 C.3       1 <0>        -0.1676
      2 C2          0.0021   -0.0041    0.0020 C.3       1 <0>         0.2372
      3 H1          0.5123   -0.3556   -0.8948 H         1 <0>         0.1029
      4 C3          0.7309   -0.5033    1.2229 C.2       1 <0>        -0.1481
      5 C4          2.0094   -0.9382    1.3349 C.2       1 <0>        -0.1394
      6 C5          2.4706   -1.3546    2.5701 C.2       1 <0>        -0.1356
      7 C6          1.6288   -1.3151    3.6332 C.2       1 <0>        -0.1192
      8 S1          0.1362   -0.6676    2.8981 S.3       1 <0>         0.0970
      9 Cl1         1.9274   -1.7696    5.2818 Cl        1 <0>         0.0203
     10 N1         -1.3723   -0.5112    0.0124 N.pl3     1 <0>        -0.7455
     11 C7         -2.0755   -0.6475   -1.1867 C.ar      1 <0>         0.2127
     12 C8         -1.4711   -0.3082   -2.3905 C.ar      1 <0>        -0.1953
     13 C9         -2.1691   -0.4447   -3.5744 C.ar      1 <0>        -0.0695
     14 C10        -3.4683   -0.9181   -3.5622 C.ar      1 <0>        -0.1313
     15 C11        -4.0730   -1.2568   -2.3656 C.ar      1 <0>        -0.0653
     16 C12        -3.3788   -1.1282   -1.1786 C.ar      1 <0>        -0.1897
     17 C13        -4.2272   -1.0647   -4.8559 C.3       1 <0>        -0.0509
     18 C14        -4.6320   -2.5278   -5.0467 C.3       1 <0>        -0.1447
     19 C15        -5.4817   -0.1899   -4.8134 C.3       1 <0>        -0.1446
     20 H2          1.0039    1.9031    0.0027 H         1 <0>         0.0704
     21 H3         -0.5459    1.8868   -0.8726 H         1 <0>         0.0720
     22 H4         -0.5289    1.8773    0.9072 H         1 <0>         0.0630
     23 H5          2.6585   -0.9597    0.4719 H         1 <0>         0.1443
     24 H6          3.4851   -1.7061    2.6868 H         1 <0>         0.1451
     25 H7         -1.7940   -0.7522    0.8520 H         1 <0>         0.3987
     26 H8         -0.4567    0.0623   -2.4007 H         1 <0>         0.1204
     27 H9         -1.6998   -0.1810   -4.5107 H         1 <0>         0.1196
     28 H10        -5.0878   -1.6262   -2.3596 H         1 <0>         0.1198
     29 H11        -3.8500   -1.3971   -0.2448 H         1 <0>         0.1186
     30 H12        -3.5939   -0.7517   -5.6861 H         1 <0>         0.0737
     31 H13        -5.2652   -2.8409   -4.2166 H         1 <0>         0.0551
     32 H14        -5.1808   -2.6339   -5.9825 H         1 <0>         0.0556
     33 H15        -3.7382   -3.1511   -5.0771 H         1 <0>         0.0547
     34 H16        -6.0305   -0.2960   -5.7491 H         1 <0>         0.0556
     35 H17        -6.1149   -0.5029   -3.9832 H         1 <0>         0.0551
     36 H18        -5.1933    0.8524   -4.6775 H         1 <0>         0.0548
@<TRIPOS>BOND
     1    1    2 1
     2    1   20 1
     3    1   21 1
     4    1   22 1
     5    2    3 1
     6    2    4 1
     7    2   10 1
     8    4    8 1
     9    4    5 2
    10    5    6 1
    11    5   23 1
    12    6    7 2
    13    6   24 1
    14    7    8 1
    15    7    9 1
    16   10   11 1
    17   10   25 1
    18   11   16 ar
    19   11   12 ar
    20   12   13 ar
    21   12   26 1
    22   13   14 ar
    23   13   27 1
    24   14   15 ar
    25   14   17 1
    26   15   16 ar
    27   15   28 1
    28   16   29 1
    29   17   18 1
    30   17   19 1
    31   17   30 1
    32   18   31 1
    33   18   32 1
    34   18   33 1
    35   19   34 1
    36   19   35 1
    37   19   36 1
