@<TRIPOS>MOLECULE
ZINC20464217
   31    33     0     0     0
SMALL
USER_CHARGES
(4R)-4-(4-chlorophenyl)-3-methyl-4,8-dihydro-1H-pyrazolo[5,4-e][1,4]thiazepin-7-one
@<TRIPOS>ATOM
      1 C1          1.6493    3.2555    0.0037 C.3       1 <0>        -0.1246
      2 C2          1.2150    1.8124    0.0002 C.2       1 <0>         0.1155
      3 C3          2.0756    0.6945   -0.0145 C.2       1 <0>        -0.2643
      4 C4          1.3076   -0.4170   -0.0146 C.2       1 <0>         0.3427
      5 N1          0.0021   -0.0041    0.0020 N.pl3     1 <0>        -0.5039
      6 H1         -0.8095   -0.7465    0.0070 H         1 <0>         0.4698
      7 N2         -0.0168    1.3904    0.0097 N.2       1 <0>        -0.2572
      8 N3          1.6285   -1.7533   -0.0348 N.am      1 <0>        -0.6450
      9 C5          2.7361   -2.4318   -0.0061 C.2       1 <0>         0.5386
     10 O1          2.5958   -3.6342    0.0699 O.2       1 <0>        -0.5319
     11 C6          4.1401   -1.9716   -0.0519 C.3       1 <0>        -0.1324
     12 S1          4.4129   -0.4572    0.8782 S.3       1 <0>        -0.1569
     13 C7          3.5650    0.8399   -0.0272 C.3       1 <0>         0.0428
     14 H2          3.7631    0.9191   -1.1063 H         1 <0>         0.1072
     15 C8          3.9262    2.1703    0.5818 C.ar      1 <0>        -0.0473
     16 C9          3.5576    2.4574    1.8828 C.ar      1 <0>        -0.0851
     17 C10         3.8936    3.6752    2.4438 C.ar      1 <0>        -0.1039
     18 C11         4.5890    4.6112    1.6992 C.ar      1 <0>        -0.0300
     19 C12         4.9527    4.3253    0.3952 C.ar      1 <0>        -0.1061
     20 C13         4.6211    3.1051   -0.1627 C.ar      1 <0>        -0.0988
     21 Cl1         5.0046    6.1438    2.4005 Cl        1 <0>        -0.0641
     22 H3          2.7480    3.3078   -0.0065 H         1 <0>         0.1139
     23 H4          1.2670    3.7513    0.9082 H         1 <0>         0.0788
     24 H5          1.2499    3.7608   -0.8880 H         1 <0>         0.0750
     25 H6          0.8314   -2.5096   -0.0866 H         1 <0>         0.4327
     26 H7          4.7942   -2.7473    0.3729 H         1 <0>         0.1569
     27 H8          4.4292   -1.7795   -1.0957 H         1 <0>         0.1265
     28 H9          3.0109    1.7284    2.4625 H         1 <0>         0.1353
     29 H10         3.6094    3.8977    3.4617 H         1 <0>         0.1375
     30 H11         5.4952    5.0557   -0.1866 H         1 <0>         0.1397
     31 H12         4.9046    2.8820   -1.1807 H         1 <0>         0.1387
@<TRIPOS>BOND
     1    1    2 1
     2    1   22 1
     3    1   23 1
     4    1   24 1
     5    2    7 2
     6    2    3 1
     7    3   13 1
     8    3    4 2
     9    4    5 1
    10    4    8 1
    11    5    6 1
    12    5    7 1
    13    8    9 am
    14    8   25 1
    15    9   10 2
    16    9   11 1
    17   11   12 1
    18   11   26 1
    19   11   27 1
    20   12   13 1
    21   13   14 1
    22   13   15 1
    23   15   20 ar
    24   15   16 ar
    25   16   17 ar
    26   16   28 1
    27   17   18 ar
    28   17   29 1
    29   18   19 ar
    30   18   21 1
    31   19   20 ar
    32   19   30 1
    33   20   31 1
