@<TRIPOS>MOLECULE
ZINC16676117
   41    44     0     0     0
SMALL
USER_CHARGES
2-[(4-pyrrolidin-1-ylphenyl)amino]-3H-quinazolin-4-one
@<TRIPOS>ATOM
      1 C1         -5.0367   -6.1684   -3.0544 C.ar      1 <0>        -0.1546
      2 C2         -4.9602   -4.7827   -3.1112 C.ar      1 <0>        -0.0610
      3 C3         -3.9295   -4.1105   -2.5172 C.ar      1 <0>        -0.1253
      4 C4         -2.9359   -4.8250   -1.8416 C.ar      1 <0>         0.1981
      5 C5         -3.0171   -6.2350   -1.7859 C.ar      1 <0>        -0.2270
      6 C6         -4.0799   -6.8951   -2.4010 C.ar      1 <0>        -0.0304
      7 C7         -1.9603   -6.9627   -1.0704 C.2       1 <0>         0.5682
      8 O1         -1.9748   -8.1772   -0.9883 O.2       1 <0>        -0.5064
      9 N1         -0.9671   -6.2335   -0.5108 N.am      1 <0>        -0.6644
     10 H1         -0.2512   -6.6818   -0.0340 H         1 <0>         0.4146
     11 C8         -0.9672   -4.8720   -0.6075 C.2       1 <0>         0.6289
     12 N2         -1.8970   -4.2002   -1.2394 N.2       1 <0>        -0.5661
     13 N3          0.0588   -4.1741   -0.0194 N.pl3     1 <0>        -0.6481
     14 C9          0.0323   -2.7734    0.0005 C.ar      1 <0>         0.1553
     15 C10        -1.1772   -2.1037    0.1296 C.ar      1 <0>        -0.0945
     16 C11        -1.2034   -0.7234    0.1502 C.ar      1 <0>        -0.0755
     17 C12        -0.0199   -0.0048    0.0412 C.ar      1 <0>         0.0708
     18 C13         1.1891   -0.6747   -0.0941 C.ar      1 <0>        -0.1318
     19 C14         1.2156   -2.0551   -0.1084 C.ar      1 <0>        -0.1306
     20 N4         -0.0463    1.3941    0.0621 N.pl3     1 <0>        -0.4828
     21 C15         0.7028    1.9232    1.2305 C.3       1 <0>         0.0385
     22 C16         1.0165    3.3835    0.8187 C.3       1 <0>        -0.1247
     23 C17         1.3098    3.2607   -0.6943 C.3       1 <0>        -0.1328
     24 C18         0.6216    1.9546   -1.1326 C.3       1 <0>         0.0365
     25 H2         -5.8611   -6.6777   -3.5312 H         1 <0>         0.1312
     26 H3         -5.7264   -4.2284   -3.6329 H         1 <0>         0.1328
     27 H4         -3.8825   -3.0328   -2.5697 H         1 <0>         0.1384
     28 H5         -4.1475   -7.9723   -2.3614 H         1 <0>         0.1351
     29 H6          0.8019   -4.6509    0.3823 H         1 <0>         0.4205
     30 H7         -2.0975   -2.6625    0.2143 H         1 <0>         0.1418
     31 H8         -2.1440   -0.2025    0.2513 H         1 <0>         0.1338
     32 H9          2.1090   -0.1159   -0.1837 H         1 <0>         0.1239
     33 H10         2.1564   -2.5761   -0.2085 H         1 <0>         0.1251
     34 H11         0.0831    1.9010    2.1269 H         1 <0>         0.0852
     35 H12         1.6236    1.3605    1.3840 H         1 <0>         0.0499
     36 H13         1.8913    3.7553    1.3522 H         1 <0>         0.0738
     37 H14         0.1564    4.0298    0.9936 H         1 <0>         0.0771
     38 H15         2.3841    3.1988   -0.8676 H         1 <0>         0.0680
     39 H16         0.8873    4.1097   -1.2317 H         1 <0>         0.0749
     40 H17         1.3649    1.2508   -1.5070 H         1 <0>         0.0511
     41 H18        -0.1164    2.1622   -1.9074 H         1 <0>         0.0825
@<TRIPOS>BOND
     1    1    6 ar
     2    1    2 ar
     3    1   25 1
     4    2    3 ar
     5    2   26 1
     6    3    4 ar
     7    3   27 1
     8    4   12 1
     9    4    5 ar
    10    5    6 ar
    11    5    7 1
    12    6   28 1
    13    7    8 2
    14    7    9 am
    15    9   10 1
    16    9   11 1
    17   11   12 2
    18   11   13 1
    19   13   14 1
    20   13   29 1
    21   14   19 ar
    22   14   15 ar
    23   15   16 ar
    24   15   30 1
    25   16   17 ar
    26   16   31 1
    27   17   18 ar
    28   17   20 1
    29   18   19 ar
    30   18   32 1
    31   19   33 1
    32   20   24 1
    33   20   21 1
    34   21   22 1
    35   21   34 1
    36   21   35 1
    37   22   23 1
    38   22   36 1
    39   22   37 1
    40   23   24 1
    41   23   38 1
    42   23   39 1
    43   24   40 1
    44   24   41 1
