@<TRIPOS>MOLECULE
ZINC50226466
   29    30     0     0     0
SMALL
USER_CHARGES

@<TRIPOS>ATOM
      1 C1         -0.0184    1.5028    0.0103 C.3       1 <0>        -0.0749
      2 C2          0.0021   -0.0041    0.0020 C.2       1 <0>        -0.1290
      3 C3         -1.0392   -0.8719    0.0017 C.2       1 <0>        -0.1728
      4 C4         -0.7802   -2.2296   -0.0075 C.2       1 <0>        -0.1238
      5 C5          0.5074   -2.6532   -0.0160 C.2       1 <0>        -0.1801
      6 S1          1.4039   -1.1093   -0.0179 S.3       1 <0>         0.0505
      7 C6          1.0430   -4.0617   -0.0269 C.3       1 <0>         0.2187
      8 N1          1.2102   -4.5100   -1.4116 N.pl3     1 <0>        -0.7464
      9 C7          1.6983   -5.7952   -1.6773 C.ar      1 <0>         0.1717
     10 C8          2.0189   -6.6475   -0.6307 C.ar      1 <0>        -0.1647
     11 C9          2.5012   -7.9159   -0.8942 C.ar      1 <0>        -0.0979
     12 C10         2.6660   -8.3401   -2.1999 C.ar      1 <0>        -0.1603
     13 C11         2.3484   -7.4968   -3.2506 C.ar      1 <0>         0.0583
     14 C12         1.8580   -6.2234   -2.9939 C.ar      1 <0>         0.1213
     15 N2          1.5299   -5.3689   -4.0559 N.pl3     1 <0>        -0.8791
     16 F1          2.5106   -7.9143   -4.5252 F         1 <0>        -0.1427
     17 H1          1.0042    1.8801    0.0026 H         1 <0>         0.0741
     18 H2         -0.5455    1.8639   -0.8728 H         1 <0>         0.0831
     19 H3         -0.5286    1.8543    0.9071 H         1 <0>         0.0837
     20 H4         -2.0560   -0.5079    0.0090 H         1 <0>         0.1348
     21 H5         -1.5916   -2.9424   -0.0076 H         1 <0>         0.1343
     22 H6          2.0064   -4.0880    0.4823 H         1 <0>         0.0753
     23 H7          0.3427   -4.7207    0.4863 H         1 <0>         0.0833
     24 H8          0.9827   -3.9165   -2.1443 H         1 <0>         0.3961
     25 H9          1.8919   -6.3198    0.3905 H         1 <0>         0.1277
     26 H10         2.7504   -8.5775   -0.0777 H         1 <0>         0.1300
     27 H11         3.0438   -9.3318   -2.4005 H         1 <0>         0.1317
     28 H12         1.1912   -4.4782   -3.8749 H         1 <0>         0.3942
     29 H13         1.6416   -5.6684   -4.9717 H         1 <0>         0.4030
@<TRIPOS>BOND
     1    1    2 1
     2    1   17 1
     3    1   18 1
     4    1   19 1
     5    2    6 1
     6    2    3 2
     7    3    4 1
     8    3   20 1
     9    4    5 2
    10    4   21 1
    11    5    6 1
    12    5    7 1
    13    7    8 1
    14    7   22 1
    15    7   23 1
    16    8    9 1
    17    8   24 1
    18    9   14 ar
    19    9   10 ar
    20   10   11 ar
    21   10   25 1
    22   11   12 ar
    23   11   26 1
    24   12   13 ar
    25   12   27 1
    26   13   14 ar
    27   13   16 1
    28   14   15 1
    29   15   28 1
    30   15   29 1
