@<TRIPOS>MOLECULE
ZINC04829017
   45    49     0     0     0
SMALL
USER_CHARGES
N-(1-adamantyl)-6-bromo-2-oxo-chromene-3-carboxamide
@<TRIPOS>ATOM
      1 C1         -1.6653   12.1195   -0.0149 C.ar      1 <0>        -0.0243
      2 C2         -2.2530   11.3996   -1.0332 C.ar      1 <0>        -0.1298
      3 C3         -2.2188   10.0100   -1.0159 C.ar      1 <0>         0.1766
      4 C4         -1.5800    9.3485    0.0486 C.ar      1 <0>        -0.1610
      5 C5         -0.9870   10.0955    1.0774 C.ar      1 <0>        -0.0155
      6 C6         -1.0341   11.4700    1.0378 C.ar      1 <0>        -0.1218
      7 Br1        -0.2350   12.4793    2.4230 Br        1 <0>        -0.0263
      8 C7         -1.5408    7.9315    0.0832 C.2       1 <0>         0.0366
      9 C8         -2.1317    7.2246   -0.9497 C.2       1 <0>        -0.2435
     10 C9         -2.7837    7.9686   -2.0333 C.2       1 <0>         0.5187
     11 O1         -3.3138    7.3675   -2.9488 O.2       1 <0>        -0.4066
     12 O2         -2.7972    9.3117   -2.0168 O.3       1 <0>        -0.2607
     13 C10        -2.1118    5.7520   -0.9578 C.2       1 <0>         0.5694
     14 O3         -2.6388    5.1417   -1.8682 O.2       1 <0>        -0.4930
     15 N1         -1.5095    5.0807    0.0438 N.am      1 <0>        -0.7222
     16 C11        -1.4896    3.6159    0.0357 C.3       1 <0>         0.1867
     17 C12        -0.7734    3.1225   -1.2231 C.3       1 <0>        -0.1238
     18 C13        -0.7527    1.5927   -1.2315 C.3       1 <0>        -0.0822
     19 C14        -0.0127    1.0858    0.0080 C.3       1 <0>        -0.1115
     20 C15        -0.7288    1.5792    1.2668 C.3       1 <0>        -0.0800
     21 C16        -0.7496    3.1091    1.2752 C.3       1 <0>        -0.1146
     22 C17        -2.1642    1.0497    1.2777 C.3       1 <0>        -0.1116
     23 C18        -2.9042    1.5565    0.0381 C.3       1 <0>        -0.0822
     24 C19        -2.1881    1.0631   -1.2207 C.3       1 <0>        -0.1105
     25 C20        -2.9250    3.0863    0.0466 C.3       1 <0>        -0.1238
     26 H1         -1.6964   13.1989   -0.0359 H         1 <0>         0.1543
     27 H2         -2.7409   11.9165   -1.8464 H         1 <0>         0.1581
     28 H3         -0.4956    9.5934    1.8977 H         1 <0>         0.1530
     29 H4         -1.0563    7.4139    0.8980 H         1 <0>         0.1562
     30 H5         -1.0891    5.5675    0.7699 H         1 <0>         0.3947
     31 H6          0.2491    3.4998   -1.2308 H         1 <0>         0.0604
     32 H7         -1.3006    3.4836   -2.1062 H         1 <0>         0.0867
     33 H8         -0.2425    1.2411   -2.1283 H         1 <0>         0.0733
     34 H9          0.0021   -0.0041    0.0020 H         1 <0>         0.0656
     35 H10         1.0099    1.4631    0.0003 H         1 <0>         0.0625
     36 H11        -0.2017    1.2182    2.1499 H         1 <0>         0.0758
     37 H12        -1.2598    3.4606    2.1720 H         1 <0>         0.0690
     38 H13         0.2730    3.4864    1.2675 H         1 <0>         0.0690
     39 H14        -2.6744    1.4012    2.1745 H         1 <0>         0.0625
     40 H15        -2.1494   -0.0402    1.2717 H         1 <0>         0.0656
     41 H16        -3.9268    1.1792    0.0459 H         1 <0>         0.0733
     42 H17        -2.7153    1.4241   -2.1037 H         1 <0>         0.0660
     43 H18        -2.1733   -0.0268   -1.2266 H         1 <0>         0.0635
     44 H19        -3.4522    3.4474   -0.8365 H         1 <0>         0.0867
     45 H20        -3.4352    3.4378    0.9434 H         1 <0>         0.0604
@<TRIPOS>BOND
     1    1    6 ar
     2    1    2 ar
     3    1   26 1
     4    2    3 ar
     5    2   27 1
     6    3   12 1
     7    3    4 ar
     8    4    5 ar
     9    4    8 1
    10    5    6 ar
    11    5   28 1
    12    6    7 1
    13    8    9 2
    14    8   29 1
    15    9   10 1
    16    9   13 1
    17   10   11 2
    18   10   12 1
    19   13   14 2
    20   13   15 am
    21   15   16 1
    22   15   30 1
    23   16   21 1
    24   16   25 1
    25   16   17 1
    26   17   18 1
    27   17   31 1
    28   17   32 1
    29   18   24 1
    30   18   19 1
    31   18   33 1
    32   19   20 1
    33   19   34 1
    34   19   35 1
    35   20   21 1
    36   20   22 1
    37   20   36 1
    38   21   37 1
    39   21   38 1
    40   22   23 1
    41   22   39 1
    42   22   40 1
    43   23   24 1
    44   23   25 1
    45   23   41 1
    46   24   42 1
    47   24   43 1
    48   25   44 1
    49   25   45 1
