@<TRIPOS>MOLECULE
ZINC39946110
   57    60     0     0     0
SMALL
USER_CHARGES

@<TRIPOS>ATOM
      1 C1         -0.3460    1.4622    2.3063 C.3       1 <0>        -0.1530
      2 C2         -0.2207   -0.0615    2.3662 C.3       1 <0>        -0.1249
      3 C3          0.8134   -0.5289    1.3400 C.3       1 <0>        -0.1114
      4 C4          0.8474   -2.0582    1.3104 C.3       1 <0>        -0.0680
      5 H1         -0.1565   -2.4405    1.1257 H         1 <0>         0.0977
      6 C5          1.7844   -2.5261    0.1951 C.3       1 <0>         0.1283
      7 N1          1.2289   -2.1388   -1.1040 N.am      1 <0>        -0.7208
      8 C6          1.9251   -2.3779   -2.2329 C.2       1 <0>         0.5298
      9 O1          3.0116   -2.9135   -2.1734 O.2       1 <0>        -0.5067
     10 C7          1.3536   -1.9795   -3.5693 C.3       1 <0>        -0.1366
     11 S1          2.5190   -2.4310   -4.8841 S.3       1 <0>        -0.1079
     12 C8          1.6931   -1.8919   -6.4066 C.3       1 <0>         0.2929
     13 H2          2.3072   -2.1279   -7.2757 H         1 <0>         0.1619
     14 N2          1.4099   -0.4475   -6.3542 N.pl3     1 <0>        -0.5939
     15 N3          0.0146   -0.3347   -6.4393 N.2       1 <0>        -0.1516
     16 C9         -0.5273   -1.5200   -6.5327 C.2       1 <0>         0.1948
     17 O2          0.4034   -2.5090   -6.5222 O.3       1 <0>        -0.3003
     18 C10        -1.9073   -1.7448   -6.6334 C.2       1 <0>         0.1306
     19 C11        -2.9192   -0.7839   -6.6583 C.ar      1 <0>        -0.1322
     20 C12        -2.8969    0.6255   -6.5948 C.ar      1 <0>        -0.0206
     21 C13        -4.0627    1.3204   -6.6415 C.ar      1 <0>        -0.1409
     22 C14        -5.2955    0.6738   -6.7517 C.ar      1 <0>         0.0460
     23 C15        -5.3913   -0.6770   -6.8176 C.ar      1 <0>        -0.2020
     24 C16        -4.2159   -1.4705   -6.7745 C.ar      1 <0>         0.3163
     25 N4         -4.0435   -2.7771   -6.8206 N.pl3     1 <0>        -0.5905
     26 C17        -2.6109   -3.0794   -6.7446 C.3       1 <0>         0.0849
     27 C18         1.3459   -2.5753    2.6353 C.ar      1 <0>        -0.0653
     28 C19         2.6019   -2.2172    3.0885 C.ar      1 <0>        -0.0881
     29 C20         3.0597   -2.6910    4.3033 C.ar      1 <0>        -0.0992
     30 C21         2.2609   -3.5238    5.0670 C.ar      1 <0>        -0.0231
     31 C22         1.0041   -3.8821    4.6143 C.ar      1 <0>        -0.0992
     32 C23         0.5444   -3.4036    3.4003 C.ar      1 <0>        -0.0188
     33 Cl1        -1.0354   -3.8478    2.8340 Cl        1 <0>        -0.0540
     34 Cl2         2.8365   -4.1193    6.5927 Cl        1 <0>        -0.0484
     35 H3         -0.6641    1.7617    1.3077 H         1 <0>         0.0515
     36 H4         -1.0828    1.7952    3.0374 H         1 <0>         0.0569
     37 H5          0.6195    1.9153    2.5312 H         1 <0>         0.0553
     38 H6          0.0973   -0.3609    3.3648 H         1 <0>         0.0648
     39 H7         -1.1863   -0.5145    2.1412 H         1 <0>         0.0624
     40 H8          0.5424   -0.1524    0.3536 H         1 <0>         0.0665
     41 H9          1.7969   -0.1489    1.6163 H         1 <0>         0.0714
     42 H10         2.7627   -2.0631    0.3244 H         1 <0>         0.0796
     43 H11         1.8871   -3.6104    0.2377 H         1 <0>         0.0760
     44 H12         0.3599   -1.7104   -1.1516 H         1 <0>         0.4014
     45 H13         0.4077   -2.4971   -3.7287 H         1 <0>         0.1114
     46 H14         1.1859   -0.9027   -3.5863 H         1 <0>         0.1134
     47 H15         2.0534    0.2742   -6.2767 H         1 <0>         0.4716
     48 H16        -1.9565    1.1495   -6.5090 H         1 <0>         0.1610
     49 H17        -4.0358    2.3990   -6.5919 H         1 <0>         0.1573
     50 H18        -6.1979    1.2663   -6.7851 H         1 <0>         0.1623
     51 H19        -6.3596   -1.1477   -6.9029 H         1 <0>         0.1626
     52 H20        -2.2870   -3.6005   -7.6456 H         1 <0>         0.1808
     53 H21        -2.4039   -3.6873   -5.8639 H         1 <0>         0.1783
     54 H22         3.2257   -1.5672    2.4928 H         1 <0>         0.1425
     55 H23         4.0413   -2.4115    4.6566 H         1 <0>         0.1439
     56 H24         0.3803   -4.5320    5.2100 H         1 <0>         0.1469
     57 H25        -4.7526   -3.4346   -6.8963 H         1 <0>         0.4568
@<TRIPOS>BOND
     1    1    2 1
     2    1   35 1
     3    1   36 1
     4    1   37 1
     5    2    3 1
     6    2   38 1
     7    2   39 1
     8    3    4 1
     9    3   40 1
    10    3   41 1
    11    4    5 1
    12    4    6 1
    13    4   27 1
    14    6    7 1
    15    6   42 1
    16    6   43 1
    17    7    8 am
    18    7   44 1
    19    8    9 2
    20    8   10 1
    21   10   11 1
    22   10   45 1
    23   10   46 1
    24   11   12 1
    25   12   13 1
    26   12   17 1
    27   12   14 1
    28   14   15 1
    29   14   47 1
    30   15   16 2
    31   16   17 1
    32   16   18 1
    33   18   26 1
    34   18   19 2
    35   19   24 ar
    36   19   20 ar
    37   20   21 ar
    38   20   48 1
    39   21   22 ar
    40   21   49 1
    41   22   23 ar
    42   22   50 1
    43   23   24 ar
    44   23   51 1
    45   24   25 2
    46   25   26 1
    47   25   57 1
    48   26   52 1
    49   26   53 1
    50   27   32 ar
    51   27   28 ar
    52   28   29 ar
    53   28   54 1
    54   29   30 ar
    55   29   55 1
    56   30   31 ar
    57   30   34 1
    58   31   32 ar
    59   31   56 1
    60   32   33 1
