@<TRIPOS>MOLECULE
ZINC03137449
   48    49     0     0     0
SMALL
USER_CHARGES
1,3-bis(2,2,2-trichloro-1-morpholino-ethyl)urea
@<TRIPOS>ATOM
      1 C1         -0.3809    3.4836   -2.4202 C.3       1 <0>        -0.0427
      2 C2         -1.0182    3.6035   -3.8071 C.3       1 <0>         0.0388
      3 O1         -1.8726    4.7500   -3.8361 O.3       1 <0>        -0.3451
      4 C3         -2.9168    4.7147   -2.8595 C.3       1 <0>         0.0399
      5 C4         -2.2988    4.6061   -1.4630 C.3       1 <0>        -0.0786
      6 C5         -0.8718    3.2407   -0.0607 C.3       1 <0>         0.2822
      7 H1         -0.4747    4.1929    0.2910 H         1 <0>         0.2122
      8 C6         -1.9628    2.7580    0.8972 C.3       1 <0>         0.0455
      9 Cl1        -1.2208    2.3177    2.4803 Cl        1 <0>         0.0009
     10 Cl2        -3.1704    4.0738    1.1446 Cl        1 <0>         0.0014
     11 Cl3        -2.7828    1.3138    0.1953 Cl        1 <0>        -0.0330
     12 N1          0.2068    2.2506   -0.1111 N.am      1 <0>        -0.7346
     13 C7          1.4924    2.6509   -0.0527 C.2       1 <0>         0.7272
     14 O2          1.7569    3.8335    0.0469 O.2       1 <0>        -0.5211
     15 N2          2.4848    1.7405   -0.1047 N.am      1 <0>        -0.7348
     16 C8          3.8822    2.1757   -0.0412 C.3       1 <0>         0.2824
     17 H2          3.9370    3.2493   -0.2215 H         1 <0>         0.2122
     18 C9          4.6952    1.4375   -1.1066 C.3       1 <0>         0.0455
     19 Cl4         3.8876    1.6150   -2.7089 Cl        1 <0>         0.0006
     20 Cl5         6.3544    2.1381   -1.1890 Cl        1 <0>         0.0023
     21 Cl6         4.8015   -0.3105   -0.6775 Cl        1 <0>        -0.0331
     22 C10         3.4838    2.2584    2.3466 C.3       1 <0>        -0.0422
     23 C11         4.0665    1.8728    3.7088 C.3       1 <0>         0.0388
     24 O3          5.3429    2.4976    3.8698 O.3       1 <0>        -0.3452
     25 C12         6.2885    2.1448    2.8566 C.3       1 <0>         0.0401
     26 C13         5.7283    2.5331    1.4857 C.3       1 <0>        -0.0812
     27 H3          0.2471    4.3544   -2.2317 H         1 <0>         0.1522
     28 H4          0.2264    2.5796   -2.3756 H         1 <0>         0.1313
     29 H5         -1.6032    2.7082   -4.0174 H         1 <0>         0.0856
     30 H6         -0.2368    3.7128   -4.5592 H         1 <0>         0.1488
     31 H7         -3.5571    3.8517   -3.0423 H         1 <0>         0.0876
     32 H8         -3.5088    5.6275   -2.9255 H         1 <0>         0.1553
     33 H9         -3.0915    4.5213   -0.7197 H         1 <0>         0.1555
     34 H10        -1.7015    5.4947   -1.2585 H         1 <0>         0.1569
     35 H11        -0.0042    1.3071   -0.1906 H         1 <0>         0.4290
     36 H12         2.2738    0.7970   -0.1842 H         1 <0>         0.4291
     37 H13         3.3183    3.3352    2.3131 H         1 <0>         0.1525
     38 H14         2.5374    1.7392    2.1954 H         1 <0>         0.1311
     39 H15         4.1819    0.7902    3.7621 H         1 <0>         0.0855
     40 H16         3.3955    2.2067    4.5002 H         1 <0>         0.1489
     41 H17         6.4685    1.0701    2.8850 H         1 <0>         0.0875
     42 H18         7.2246    2.6753    3.0308 H         1 <0>         0.1551
     43 H19         6.4202    2.2145    0.7061 H         1 <0>         0.1567
     44 H20         5.5988    3.6143    1.4377 H         1 <0>         0.1568
     45 N3         -1.4568    3.3927   -1.4105 N.4       1 <0>        -0.4142
     46 H21        -2.0395    2.5726   -1.6160 H         1 <0>         0.4219
     47 N4          4.4337    1.8473    1.2912 N.4       1 <0>        -0.4138
     48 H22         4.5808    0.8329    1.3507 H         1 <0>         0.4221
@<TRIPOS>BOND
     1    1    2 1
     2    1   27 1
     3    1   28 1
     4    1   45 1
     5    2    3 1
     6    2   29 1
     7    2   30 1
     8    3    4 1
     9    4    5 1
    10    4   31 1
    11    4   32 1
    12    5   33 1
    13    5   34 1
    14    5   45 1
    15    6    7 1
    16    6    8 1
    17    6   12 1
    18    6   45 1
    19    8    9 1
    20    8   10 1
    21    8   11 1
    22   12   13 am
    23   12   35 1
    24   13   14 2
    25   13   15 am
    26   15   16 1
    27   15   36 1
    28   16   17 1
    29   16   18 1
    30   16   47 1
    31   18   19 1
    32   18   20 1
    33   18   21 1
    34   22   23 1
    35   22   37 1
    36   22   38 1
    37   22   47 1
    38   23   24 1
    39   23   39 1
    40   23   40 1
    41   24   25 1
    42   25   26 1
    43   25   41 1
    44   25   42 1
    45   26   43 1
    46   26   44 1
    47   26   47 1
    48   45   46 1
    49   47   48 1
