@<TRIPOS>MOLECULE
ZINC36700526
   58    59     0     0     0
SMALL
USER_CHARGES

@<TRIPOS>ATOM
      1 C1          1.3030   -2.1394    0.5251 C.3       1 <0>        -0.1559
      2 C2          0.6532   -1.4019   -0.6474 C.3       1 <0>        -0.0875
      3 C3          1.3990   -1.7410   -1.9395 C.3       1 <0>        -0.1568
      4 C4         -0.8091   -1.8338   -0.7742 C.3       1 <0>         0.1290
      5 H1         -1.3327   -1.6219    0.1581 H         1 <0>         0.1295
      6 C5         -1.4614   -1.0743   -1.9005 C.2       1 <0>         0.5025
      7 O1         -1.6897   -1.6297   -2.9542 O.2       1 <0>        -0.4909
      8 N1         -1.7911    0.2223   -1.7369 N.am      1 <0>        -0.7484
      9 C6         -2.5188    0.9319   -2.7920 C.3       1 <0>         0.0975
     10 C7         -2.6534    2.4084   -2.4142 C.3       1 <0>         0.0655
     11 H2         -3.1001    2.9564   -3.2439 H         1 <0>         0.1646
     12 C8         -3.5316    2.5373   -1.1964 C.ar      1 <0>        -0.1300
     13 C9         -2.9624    2.7176    0.0504 C.ar      1 <0>        -0.1271
     14 C10        -3.7677    2.8359    1.1675 C.ar      1 <0>        -0.0866
     15 C11        -5.1429    2.7738    1.0388 C.ar      1 <0>        -0.0777
     16 C12        -5.7131    2.5935   -0.2071 C.ar      1 <0>        -0.0889
     17 C13        -4.9076    2.4808   -1.3266 C.ar      1 <0>        -0.0135
     18 Cl1        -5.6233    2.2609   -2.8928 Cl        1 <0>        -0.0411
     19 N2         -1.3247    2.9618   -2.1206 N.4       1 <0>        -0.3865
     20 C14        -0.4323    2.7253   -3.2633 C.3       1 <0>        -0.0567
     21 C15        -1.4385    4.4064   -1.8790 C.3       1 <0>        -0.0564
     22 N3         -0.8714   -3.2706   -1.0536 N.pl3     1 <0>        -1.0880
     23 S1         -2.0655   -4.1952   -0.3741 S.o2      1 <0>         2.6899
     24 O2         -1.8439   -5.5293   -0.8103 O.2       1 <0>        -0.9379
     25 O3         -2.1192   -3.8424    1.0014 O.2       1 <0>        -0.9369
     26 C16        -3.5925   -3.6796   -1.0862 C.ar      1 <0>        -0.7093
     27 C17        -4.2770   -4.5237   -1.9403 C.ar      1 <0>         0.0135
     28 C18        -5.4749   -4.1195   -2.4991 C.ar      1 <0>        -0.1395
     29 C19        -5.9899   -2.8706   -2.2044 C.ar      1 <0>        -0.0331
     30 C20        -5.3076   -2.0252   -1.3505 C.ar      1 <0>        -0.1685
     31 C21        -4.1100   -2.4312   -0.7860 C.ar      1 <0>         0.1840
     32 F1         -3.4444   -1.6073    0.0527 F         1 <0>        -0.1297
     33 H3          2.3637   -1.8921    0.5669 H         1 <0>         0.0696
     34 H4          0.8225   -1.8372    1.4556 H         1 <0>         0.0661
     35 H5          1.1857   -3.2144    0.3880 H         1 <0>         0.0658
     36 H6          0.7007   -0.3272   -0.4718 H         1 <0>         0.0818
     37 H7          1.2850   -2.8030   -2.1569 H         1 <0>         0.0659
     38 H8          0.9866   -1.1556   -2.7614 H         1 <0>         0.0547
     39 H9          2.4567   -1.5059   -1.8209 H         1 <0>         0.0712
     40 H10        -1.5465    0.6856   -0.9205 H         1 <0>         0.3947
     41 H11        -1.9726    0.8455   -3.7313 H         1 <0>         0.1094
     42 H12        -3.5105    0.4943   -2.9068 H         1 <0>         0.1135
     43 H13        -1.8882    2.7658    0.1516 H         1 <0>         0.1239
     44 H14        -3.3226    2.9765    2.1414 H         1 <0>         0.1464
     45 H15        -5.7717    2.8659    1.9120 H         1 <0>         0.1486
     46 H16        -6.7873    2.5448   -0.3075 H         1 <0>         0.1497
     47 H17        -0.8331    3.2228   -4.1464 H         1 <0>         0.1300
     48 H18         0.5575    3.1234   -3.0398 H         1 <0>         0.1333
     49 H19        -0.3592    1.6542   -3.4515 H         1 <0>         0.1271
     50 H20        -2.1006    4.5819   -1.0311 H         1 <0>         0.1274
     51 H21        -0.4526    4.8170   -1.6612 H         1 <0>         0.1321
     52 H22        -1.8466    4.8920   -2.7654 H         1 <0>         0.1287
     53 H23        -0.2133   -3.6803   -1.6366 H         1 <0>         0.4283
     54 H24        -3.8755   -5.4993   -2.1714 H         1 <0>         0.1561
     55 H25        -6.0088   -4.7796   -3.1666 H         1 <0>         0.1456
     56 H26        -6.9256   -2.5556   -2.6421 H         1 <0>         0.1440
     57 H27        -5.7099   -1.0496   -1.1208 H         1 <0>         0.1394
     58 H28        -0.9469    2.5123   -1.3001 H         1 <0>         0.4175
@<TRIPOS>BOND
     1    1    2 1
     2    1   33 1
     3    1   34 1
     4    1   35 1
     5    2    3 1
     6    2    4 1
     7    2   36 1
     8    3   37 1
     9    3   38 1
    10    3   39 1
    11    4    5 1
    12    4    6 1
    13    4   22 1
    14    6    7 2
    15    6    8 am
    16    8    9 1
    17    8   40 1
    18    9   10 1
    19    9   41 1
    20    9   42 1
    21   10   11 1
    22   10   12 1
    23   10   19 1
    24   12   17 ar
    25   12   13 ar
    26   13   14 ar
    27   13   43 1
    28   14   15 ar
    29   14   44 1
    30   15   16 ar
    31   15   45 1
    32   16   17 ar
    33   16   46 1
    34   17   18 1
    35   19   20 1
    36   19   21 1
    37   19   58 1
    38   20   47 1
    39   20   48 1
    40   20   49 1
    41   21   50 1
    42   21   51 1
    43   21   52 1
    44   22   23 1
    45   22   53 1
    46   23   24 2
    47   23   25 2
    48   23   26 1
    49   26   31 ar
    50   26   27 ar
    51   27   28 ar
    52   27   54 1
    53   28   29 ar
    54   28   55 1
    55   29   30 ar
    56   29   56 1
    57   30   31 ar
    58   30   57 1
    59   31   32 1
