@<TRIPOS>MOLECULE
ZINC16488822
   43    46     0     0     0
SMALL
USER_CHARGES
(3aS,4S,7aR)-6-amino-4-(2,5-dichlorophenyl)-1-phenyl-3-(trifluoromethyl)-4,7a-dihydro-3aH-pyrano[5,6-d]pyrazole-5-carbonitrile
@<TRIPOS>ATOM
      1 C1         -3.2177    0.2748    2.7632 C.ar      1 <0>        -0.1491
      2 C2         -2.8689    1.6117    2.7016 C.ar      1 <0>        -0.0820
      3 C3         -1.7646    2.0059    1.9722 C.ar      1 <0>        -0.1523
      4 C4         -1.0037    1.0575    1.2993 C.ar      1 <0>         0.2156
      5 C5         -1.3606   -0.2842    1.3588 C.ar      1 <0>        -0.1610
      6 C6         -2.4628   -0.6718    2.0948 C.ar      1 <0>        -0.0806
      7 N1          0.1130    1.4524    0.5606 N.pl3     1 <0>        -0.4721
      8 C7          1.0319    0.6117   -0.2097 C.3       1 <0>         0.2801
      9 H1          0.8317    0.6901   -1.2783 H         1 <0>         0.1399
     10 C8          2.3622    1.3415    0.1760 C.3       1 <0>        -0.1277
     11 H2          2.6935    1.0528    1.1735 H         1 <0>         0.1445
     12 C9          3.3805    0.9028   -0.8519 C.3       1 <0>         0.0502
     13 H3          4.3765    1.2406   -0.5656 H         1 <0>         0.1232
     14 C10         3.3352   -0.6139   -0.8918 C.2       1 <0>        -0.2817
     15 C11         2.3015   -1.3213   -0.3741 C.2       1 <0>         0.4490
     16 O1          1.1997   -0.7383    0.1756 O.3       1 <0>        -0.2936
     17 N2          2.3678   -2.6915   -0.4056 N.pl3     1 <0>        -0.8250
     18 C12         4.4228   -1.3220   -1.4971 C.1       1 <0>         0.2706
     19 N3          5.2856   -1.8837   -1.9773 N.1       1 <0>        -0.4317
     20 C13         3.0097    1.4679   -2.1989 C.ar      1 <0>        -0.0556
     21 C14         1.7649    2.0374   -2.3905 C.ar      1 <0>        -0.1399
     22 C15         1.4245    2.5560   -3.6269 C.ar      1 <0>        -0.0173
     23 C16         2.3302    2.5047   -4.6719 C.ar      1 <0>        -0.0953
     24 C17         3.5744    1.9350   -4.4804 C.ar      1 <0>        -0.0837
     25 C18         3.9172    1.4217   -3.2419 C.ar      1 <0>        -0.0217
     26 Cl1         5.4832    0.7129   -2.9992 Cl        1 <0>        -0.0417
     27 Cl2        -0.1386    3.2718   -3.8675 Cl        1 <0>        -0.0516
     28 C19         1.8983    2.7677    0.1455 C.2       1 <0>         0.0022
     29 N4          0.6256    2.7629    0.3794 N.2       1 <0>        -0.1291
     30 C20         2.7552    3.9807   -0.1102 C.3       1 <0>         0.5531
     31 F1          1.9871    5.1379    0.0574 F         1 <0>        -0.1561
     32 F2          3.8238    3.9954    0.7926 F         1 <0>        -0.1553
     33 F3          3.2501    3.9348   -1.4179 F         1 <0>        -0.1521
     34 H4         -4.0819   -0.0307    3.3344 H         1 <0>         0.1258
     35 H5         -3.4607    2.3481    3.2248 H         1 <0>         0.1296
     36 H6         -1.4928    3.0500    1.9246 H         1 <0>         0.1316
     37 H7         -0.7741   -1.0235    0.8334 H         1 <0>         0.1326
     38 H8         -2.7384   -1.7148    2.1448 H         1 <0>         0.1293
     39 H9          1.6408   -3.2207   -0.0419 H         1 <0>         0.4134
     40 H10         3.1416   -3.1310   -0.7917 H         1 <0>         0.4270
     41 H11         1.0582    2.0778   -1.5749 H         1 <0>         0.1435
     42 H12         2.0645    2.9096   -5.6372 H         1 <0>         0.1474
     43 H13         4.2812    1.8946   -5.2961 H         1 <0>         0.1479
@<TRIPOS>BOND
     1    1    6 ar
     2    1    2 ar
     3    1   34 1
     4    2    3 ar
     5    2   35 1
     6    3    4 ar
     7    3   36 1
     8    4    5 ar
     9    4    7 1
    10    5    6 ar
    11    5   37 1
    12    6   38 1
    13    7   29 1
    14    7    8 1
    15    8    9 1
    16    8   16 1
    17    8   10 1
    18   10   11 1
    19   10   12 1
    20   10   28 1
    21   12   13 1
    22   12   14 1
    23   12   20 1
    24   14   15 2
    25   14   18 1
    26   15   16 1
    27   15   17 1
    28   17   39 1
    29   17   40 1
    30   18   19 3
    31   20   25 ar
    32   20   21 ar
    33   21   22 ar
    34   21   41 1
    35   22   23 ar
    36   22   27 1
    37   23   24 ar
    38   23   42 1
    39   24   25 ar
    40   24   43 1
    41   25   26 1
    42   28   29 2
    43   28   30 1
    44   30   31 1
    45   30   32 1
    46   30   33 1
