@<TRIPOS>MOLECULE
ZINC07011456
   43    45     0     0     0
SMALL
USER_CHARGES
N-[2-chloro-5-(trifluoromethyl)phenyl]-3,3-dimethyl-2-methylene-norbornane-1-carboxamide
@<TRIPOS>ATOM
      1 C1          6.9879    6.5929    0.6126 C.3       1 <0>        -0.1399
      2 C2          5.5483    7.0649    0.8260 C.3       1 <0>        -0.0303
      3 C3          5.1540    8.1122   -0.2603 C.3       1 <0>        -0.0930
      4 H1          5.4839    9.1356   -0.0819 H         1 <0>         0.1098
      5 C4          5.5936    7.4763   -1.6151 C.3       1 <0>        -0.1256
      6 C5          4.6240    6.2703   -1.7948 C.3       1 <0>        -0.1029
      7 C6          3.6853    6.3291   -0.5512 C.3       1 <0>        -0.0736
      8 C7          3.6024    7.8793   -0.3218 C.3       1 <0>        -0.0925
      9 C8          4.5612    5.9077    0.6371 C.2       1 <0>        -0.0963
     10 C9          4.4884    4.7933    1.3218 C.2       1 <0>        -0.1837
     11 C10         2.3696    5.6066   -0.6863 C.2       1 <0>         0.5489
     12 O1          1.3284    6.2246   -0.6158 O.2       1 <0>        -0.5038
     13 N1          2.3501    4.2738   -0.8854 N.am      1 <0>        -0.6660
     14 C11         1.1325    3.6148   -1.0916 C.ar      1 <0>         0.1579
     15 C12        -0.0372    4.1274   -0.5466 C.ar      1 <0>        -0.0735
     16 C13        -1.2371    3.4751   -0.7521 C.ar      1 <0>        -0.1581
     17 C14        -1.2759    2.3152   -1.5043 C.ar      1 <0>        -0.0759
     18 C15        -0.1127    1.7985   -2.0443 C.ar      1 <0>        -0.0878
     19 C16         1.0916    2.4463   -1.8425 C.ar      1 <0>        -0.0412
     20 Cl1         2.5509    1.8012   -2.5267 Cl        1 <0>        -0.0474
     21 C17        -2.5069    4.0314   -0.1612 C.3       1 <0>         0.5114
     22 F1         -3.0981    4.9131   -1.0724 F         1 <0>        -0.1717
     23 F2         -3.3914    2.9832    0.1144 F         1 <0>        -0.1738
     24 F3         -2.2099    4.7145    1.0231 F         1 <0>        -0.1727
     25 C18         5.3869    7.6626    2.2251 C.3       1 <0>        -0.1389
     26 H2          7.6458    7.4582    0.5321 H         1 <0>         0.0620
     27 H3          7.2978    5.9783    1.4578 H         1 <0>         0.0563
     28 H4          7.0458    6.0059   -0.3040 H         1 <0>         0.0623
     29 H5          5.4895    8.1976   -2.4256 H         1 <0>         0.0726
     30 H6          6.6222    7.1211   -1.5527 H         1 <0>         0.0798
     31 H7          5.1728    5.3287   -1.8127 H         1 <0>         0.0737
     32 H8          4.0480    6.3932   -2.7120 H         1 <0>         0.0726
     33 H9          3.1437    8.3946   -1.1657 H         1 <0>         0.0818
     34 H10         3.1129    8.1287    0.6197 H         1 <0>         0.0801
     35 H11         3.7478    4.0499    1.0664 H         1 <0>         0.0997
     36 H12         5.1692    4.6178    2.1417 H         1 <0>         0.1132
     37 H13         3.1798    3.7713   -0.8859 H         1 <0>         0.4174
     38 H14        -0.0086    5.0351    0.0378 H         1 <0>         0.1714
     39 H15        -2.2163    1.8096   -1.6667 H         1 <0>         0.1491
     40 H16        -0.1458    0.8905   -2.6281 H         1 <0>         0.1526
     41 H17         4.3486    7.9580    2.3765 H         1 <0>         0.0583
     42 H18         5.6659    6.9195    2.9721 H         1 <0>         0.0570
     43 H19         6.0312    8.5363    2.3234 H         1 <0>         0.0608
@<TRIPOS>BOND
     1    1    2 1
     2    1   26 1
     3    1   27 1
     4    1   28 1
     5    2    9 1
     6    2    3 1
     7    2   25 1
     8    3    4 1
     9    3    8 1
    10    3    5 1
    11    5    6 1
    12    5   29 1
    13    5   30 1
    14    6    7 1
    15    6   31 1
    16    6   32 1
    17    7    8 1
    18    7    9 1
    19    7   11 1
    20    8   33 1
    21    8   34 1
    22    9   10 2
    23   10   35 1
    24   10   36 1
    25   11   12 2
    26   11   13 am
    27   13   14 1
    28   13   37 1
    29   14   19 ar
    30   14   15 ar
    31   15   16 ar
    32   15   38 1
    33   16   17 ar
    34   16   21 1
    35   17   18 ar
    36   17   39 1
    37   18   19 ar
    38   18   40 1
    39   19   20 1
    40   21   22 1
    41   21   23 1
    42   21   24 1
    43   25   41 1
    44   25   42 1
    45   25   43 1
