@<TRIPOS>MOLECULE
ZINC60392695
   41    43     0     0     0
SMALL
USER_CHARGES

@<TRIPOS>ATOM
      1 C1         -0.0187    1.5258    0.0104 C.3       1 <0>        -0.1488
      2 C2          0.0021   -0.0041    0.0020 C.3       1 <0>        -0.0902
      3 H1          0.5123   -0.3554   -0.8948 H         1 <0>         0.0703
      4 C3         -1.4338   -0.5335    0.0122 C.3       1 <0>        -0.1322
      5 C4         -1.4095   -2.0646   -0.0312 C.3       1 <0>         0.1427
      6 N1         -0.5774   -2.5560    1.0755 N.pl3     1 <0>        -0.6646
      7 C5          0.7921   -2.0416    1.2120 C.3       1 <0>         0.1689
      8 H2          1.3926   -2.3717    0.3643 H         1 <0>         0.0578
      9 C6          0.7429   -0.5107    1.2416 C.3       1 <0>        -0.1270
     10 C7          1.4088   -2.5631    2.5114 C.3       1 <0>        -0.1574
     11 C8         -1.0809   -3.4978    1.9847 C.ar      1 <0>         0.1082
     12 C9         -0.9214   -4.8536    1.7387 C.ar      1 <0>        -0.0794
     13 C10        -1.4199   -5.7813    2.6390 C.ar      1 <0>         0.0356
     14 C11        -2.0807   -5.3550    3.7895 C.ar      1 <0>         0.1245
     15 C12        -2.2401   -4.0024    4.0359 C.ar      1 <0>        -0.1862
     16 C13        -1.7366   -3.0715    3.1385 C.ar      1 <0>         0.2258
     17 N2         -1.8925   -1.7009    3.3896 N.pl3     1 <0>        -0.8674
     18 O1         -2.5662   -6.2791    4.6630 O.3       1 <0>        -0.3029
     19 C14        -3.0297   -7.5109    4.1042 C.3       1 <0>         0.0521
     20 C15        -2.0191   -8.0291    3.1128 C.2       1 <0>         0.4887
     21 O2         -1.8823   -9.2234    2.9502 O.2       1 <0>        -0.5174
     22 N3         -1.2662   -7.1579    2.4064 N.am      1 <0>        -0.6554
     23 H3          1.0039    1.9031    0.0027 H         1 <0>         0.0546
     24 H4         -0.5459    1.8868   -0.8726 H         1 <0>         0.0547
     25 H5         -0.5289    1.8773    0.9072 H         1 <0>         0.0527
     26 H6         -1.9369   -0.2032    0.9210 H         1 <0>         0.0607
     27 H7         -1.9679   -0.1533   -0.8586 H         1 <0>         0.0693
     28 H8         -2.4238   -2.4493    0.0755 H         1 <0>         0.0691
     29 H9         -0.9886   -2.3966   -0.9803 H         1 <0>         0.0508
     30 H10         1.7582   -0.1143    1.2460 H         1 <0>         0.0687
     31 H11         0.2191   -0.1807    2.1387 H         1 <0>         0.0614
     32 H12         1.4313   -3.6527    2.4912 H         1 <0>         0.0603
     33 H13         2.4246   -2.1805    2.6108 H         1 <0>         0.0634
     34 H14         0.8098   -2.2277    3.3581 H         1 <0>         0.0607
     35 H15        -0.4101   -5.1853    0.8471 H         1 <0>         0.1317
     36 H16        -2.7519   -3.6718    4.9276 H         1 <0>         0.1378
     37 H17        -1.5441   -1.0498    2.7606 H         1 <0>         0.4022
     38 H18        -2.3487   -1.4037    4.1924 H         1 <0>         0.3974
     39 H19        -3.1648   -8.2426    4.9007 H         1 <0>         0.1453
     40 H20        -3.9813   -7.3450    3.5993 H         1 <0>         0.0998
     41 H21        -0.6294   -7.4781    1.7485 H         1 <0>         0.4139
@<TRIPOS>BOND
     1    1    2 1
     2    1   23 1
     3    1   24 1
     4    1   25 1
     5    2    3 1
     6    2    9 1
     7    2    4 1
     8    4    5 1
     9    4   26 1
    10    4   27 1
    11    5    6 1
    12    5   28 1
    13    5   29 1
    14    6    7 1
    15    6   11 1
    16    7    8 1
    17    7    9 1
    18    7   10 1
    19    9   30 1
    20    9   31 1
    21   10   32 1
    22   10   33 1
    23   10   34 1
    24   11   16 ar
    25   11   12 ar
    26   12   13 ar
    27   12   35 1
    28   13   22 1
    29   13   14 ar
    30   14   15 ar
    31   14   18 1
    32   15   16 ar
    33   15   36 1
    34   16   17 1
    35   17   37 1
    36   17   38 1
    37   18   19 1
    38   19   20 1
    39   19   39 1
    40   19   40 1
    41   20   21 2
    42   20   22 am
    43   22   41 1
