@<TRIPOS>MOLECULE
ZINC58105672
   34    36     0     0     0
SMALL
USER_CHARGES

@<TRIPOS>ATOM
      1 C1         -0.0187    1.5258    0.0104 C.3       1 <0>        -0.1292
      2 C2          0.0021   -0.0041    0.0020 C.3       1 <0>        -0.0515
      3 C3          0.7873   -0.5165   -1.1834 C.ar      1 <0>        -0.1171
      4 C4          0.6205   -0.3858   -2.5438 C.ar      1 <0>        -0.0465
      5 C5          1.5223   -0.9810   -3.4102 C.ar      1 <0>        -0.0506
      6 C6          2.5877   -1.7049   -2.9037 C.ar      1 <0>        -0.0627
      7 C7          2.7559   -1.8366   -1.5410 C.ar      1 <0>        -0.1259
      8 C8          1.8524   -1.2404   -0.6633 C.ar      1 <0>         0.1693
      9 N1          1.8079   -1.2293    0.7318 N.am      1 <0>        -0.6582
     10 C9          0.7606   -0.5308    1.2016 C.2       1 <0>         0.5381
     11 O1          0.4764   -0.3553    2.3676 O.2       1 <0>        -0.4852
     12 C10         3.9195   -2.6270   -1.0001 C.3       1 <0>         0.2424
     13 H1          3.6153   -3.1451   -0.0907 H         1 <0>         0.1256
     14 C11         5.0599   -1.6926   -0.6884 C.2       1 <0>        -0.1890
     15 C12         5.4460   -1.1864    0.5083 C.2       1 <0>        -0.1401
     16 C13         6.5359   -0.3377    0.5570 C.2       1 <0>        -0.1586
     17 C14         7.1865   -0.0367   -0.5934 C.2       1 <0>        -0.1627
     18 S1          6.2579   -0.9713   -1.7982 S.3       1 <0>         0.0574
     19 O2          4.3401   -3.5833   -1.9752 O.3       1 <0>        -0.5345
     20 Cl1         1.3166   -0.8200   -5.1265 Cl        1 <0>        -0.0534
     21 C15        -1.4240   -0.5580   -0.0160 C.3       1 <0>        -0.1291
     22 H2          1.0039    1.9031    0.0027 H         1 <0>         0.0622
     23 H3         -0.5459    1.8868   -0.8726 H         1 <0>         0.0765
     24 H4         -0.5289    1.8773    0.9072 H         1 <0>         0.0751
     25 H5         -0.2124    0.1796   -2.9347 H         1 <0>         0.1436
     26 H6          3.2908   -2.1694   -3.5791 H         1 <0>         0.1413
     27 H7          2.4581   -1.6749    1.2971 H         1 <0>         0.4131
     28 H8          4.9098   -1.4421    1.4102 H         1 <0>         0.1301
     29 H9          6.8641    0.0796    1.4975 H         1 <0>         0.1373
     30 H10         8.0461    0.6000   -0.7421 H         1 <0>         0.1892
     31 H11         4.6254   -3.1920   -2.8122 H         1 <0>         0.3784
     32 H12        -1.9354   -0.2158   -0.9156 H         1 <0>         0.0764
     33 H13        -1.3907   -1.6475   -0.0092 H         1 <0>         0.0630
     34 H14        -1.9619   -0.2055    0.8641 H         1 <0>         0.0753
@<TRIPOS>BOND
     1    1    2 1
     2    1   22 1
     3    1   23 1
     4    1   24 1
     5    2   10 1
     6    2    3 1
     7    2   21 1
     8    3    8 ar
     9    3    4 ar
    10    4    5 ar
    11    4   25 1
    12    5    6 ar
    13    5   20 1
    14    6    7 ar
    15    6   26 1
    16    7    8 ar
    17    7   12 1
    18    8    9 1
    19    9   10 am
    20    9   27 1
    21   10   11 2
    22   12   13 1
    23   12   14 1
    24   12   19 1
    25   14   18 1
    26   14   15 2
    27   15   16 1
    28   15   28 1
    29   16   17 2
    30   16   29 1
    31   17   18 1
    32   17   30 1
    33   19   31 1
    34   21   32 1
    35   21   33 1
    36   21   34 1
