@<TRIPOS>MOLECULE
ZINC23477938
   52    56     0     0     0
SMALL
USER_CHARGES
(2Z)-6,8-dichloro-2-phenylimino-N-[4-(p-tolyl)thiazol-2-yl]chromene-3-carboxamide
@<TRIPOS>ATOM
      1 C1         13.5224    6.2515   -1.1524 C.3       1 <0>        -0.1238
      2 C2         12.0893    6.6347   -0.8869 C.ar      1 <0>        -0.0699
      3 C3         11.0972    5.6723   -0.9415 C.ar      1 <0>        -0.1245
      4 C4          9.7832    6.0174   -0.6993 C.ar      1 <0>        -0.0800
      5 C5          9.4566    7.3387   -0.3987 C.ar      1 <0>        -0.0437
      6 C6         10.4597    8.3052   -0.3498 C.ar      1 <0>        -0.0957
      7 C7         11.7710    7.9476   -0.5891 C.ar      1 <0>        -0.1206
      8 C8          8.0461    7.7160   -0.1379 C.2       1 <0>         0.1223
      9 C9          7.7215    9.0108    0.1572 C.2       1 <0>        -0.2171
     10 S1          5.9513    8.8694    0.3655 S.3       1 <0>         0.1282
     11 C10         5.8277    7.1161    0.0408 C.2       1 <0>         0.2895
     12 N1          7.0899    6.8004   -0.1832 N.2       1 <0>        -0.5095
     13 N2          4.7037    6.3013    0.0324 N.am      1 <0>        -0.6006
     14 C11         3.4900    6.8247    0.2959 C.2       1 <0>         0.5856
     15 O1          3.3795    8.0110    0.5411 O.2       1 <0>        -0.5015
     16 C12         2.2980    5.9607    0.2870 C.2       1 <0>        -0.2493
     17 C13         2.3892    4.6025    0.0111 C.2       1 <0>         0.1326
     18 C14         1.1463    3.8277    0.0264 C.ar      1 <0>        -0.1460
     19 C15         1.1748    2.4277    0.0265 C.ar      1 <0>        -0.0178
     20 C16        -0.0083    1.7226    0.0449 C.ar      1 <0>        -0.0339
     21 C17        -1.2248    2.3920    0.0586 C.ar      1 <0>        -0.0209
     22 C18        -1.2684    3.7724    0.0629 C.ar      1 <0>        -0.0302
     23 C19        -0.0883    4.5029    0.0425 C.ar      1 <0>         0.1353
     24 O2         -0.1162    5.8582    0.0349 O.3       1 <0>        -0.1960
     25 C20         0.9531    6.5001    0.5706 C.2       1 <0>         0.5385
     26 N3          0.7960    7.5699    1.3198 N.pl3     1 <0>        -0.4739
     27 C21        -0.4476    8.1155    1.4806 C.ar      1 <0>         0.0051
     28 C22        -0.9392    9.0297    0.5454 C.ar      1 <0>        -0.0782
     29 C23        -2.1967    9.5715    0.7110 C.ar      1 <0>        -0.1034
     30 C24        -2.9664    9.2204    1.8061 C.ar      1 <0>        -0.0715
     31 C25        -2.4837    8.3199    2.7393 C.ar      1 <0>        -0.1041
     32 C26        -1.2303    7.7656    2.5837 C.ar      1 <0>        -0.0805
     33 Cl1        -2.7979    4.5932    0.0873 Cl        1 <0>         0.0062
     34 Cl2         0.0215   -0.0132    0.0435 Cl        1 <0>        -0.0011
     35 H1         13.5798    5.1747   -1.3695 H         1 <0>         0.0681
     36 H2         14.1332    6.4800   -0.2666 H         1 <0>         0.0742
     37 H3         13.9002    6.8201   -2.0149 H         1 <0>         0.0742
     38 H4         11.3515    4.6488   -1.1745 H         1 <0>         0.1263
     39 H5          9.0094    5.2652   -0.7422 H         1 <0>         0.1300
     40 H6         10.2118    9.3314   -0.1217 H         1 <0>         0.1256
     41 H7         12.5496    8.6949   -0.5478 H         1 <0>         0.1288
     42 H8          8.3583    9.8790    0.2417 H         1 <0>         0.2055
     43 H9          4.8037    5.2285   -0.1893 H         1 <0>         0.4548
     44 H10         3.3389    4.1362   -0.2058 H         1 <0>         0.1941
     45 H11         2.1191    1.9038    0.0127 H         1 <0>         0.1774
     46 H12        -2.1457    1.8278    0.0702 H         1 <0>         0.1794
     47 H13        -0.3377    9.3083   -0.3072 H         1 <0>         0.1388
     48 H14        -2.5798   10.2749   -0.0135 H         1 <0>         0.1460
     49 H15        -3.9487    9.6509    1.9328 H         1 <0>         0.1434
     50 H16        -3.0897    8.0507    3.5918 H         1 <0>         0.1459
     51 H17        -0.8550    7.0627    3.3127 H         1 <0>         0.1377
     52 H18         1.6650    8.0256    1.8170 H         1 <0>         0.5003
@<TRIPOS>BOND
     1    1    2 1
     2    1   35 1
     3    1   36 1
     4    1   37 1
     5    2    7 ar
     6    2    3 ar
     7    3    4 ar
     8    3   38 1
     9    4    5 ar
    10    4   39 1
    11    5    6 ar
    12    5    8 1
    13    6    7 ar
    14    6   40 1
    15    7   41 1
    16    8   12 1
    17    8    9 2
    18    9   10 1
    19    9   42 1
    20   10   11 1
    21   11   12 2
    22   11   13 1
    23   13   14 am
    24   13   43 1
    25   14   15 2
    26   14   16 1
    27   16   25 1
    28   16   17 2
    29   17   18 1
    30   17   44 1
    31   18   23 ar
    32   18   19 ar
    33   19   20 ar
    34   19   45 1
    35   20   21 ar
    36   20   34 1
    37   21   22 ar
    38   21   46 1
    39   22   23 ar
    40   22   33 1
    41   23   24 1
    42   24   25 1
    43   25   26 2
    44   26   27 1
    45   26   52 1
    46   27   32 ar
    47   27   28 ar
    48   28   29 ar
    49   28   47 1
    50   29   30 ar
    51   29   48 1
    52   30   31 ar
    53   30   49 1
    54   31   32 ar
    55   31   50 1
    56   32   51 1
