@<TRIPOS>MOLECULE
CHEMBL153866
   32    34     0     0     0
SMALL
USER_CHARGES

@<TRIPOS>ATOM
      1 C1         -0.0131    1.3689    0.2301 C.ar      1 <0>        -0.0956
      2 C2          1.1543    2.0853    0.0381 C.ar      1 <0>        -0.0959
      3 C3          2.3489    1.4222   -0.1737 C.ar      1 <0>        -0.1075
      4 C4          2.3801    0.0414   -0.1939 C.ar      1 <0>        -0.1083
      5 C5          1.2098   -0.6809   -0.0010 C.ar      1 <0>         0.1583
      6 C6          0.0111   -0.0116    0.2111 C.ar      1 <0>        -0.0787
      7 N1          1.2377   -2.0789   -0.0212 N.pl3     1 <0>        -0.6424
      8 C7          0.1650   -2.7807   -0.5175 C.2       1 <0>         0.6305
      9 N2          0.1605   -4.1409   -0.4171 N.am      1 <0>        -0.6476
     10 H1          0.9080   -4.5969    0.0001 H         1 <0>         0.4220
     11 C8         -0.8818   -4.8560   -0.8962 C.2       1 <0>         0.5924
     12 C9         -1.9488   -4.1643   -1.4943 C.2       1 <0>        -0.1813
     13 N3         -3.1436   -4.5370   -2.0782 N.pl3     1 <0>        -0.5336
     14 C10        -3.7591   -3.4054   -2.4789 C.2       1 <0>         0.2787
     15 N4         -3.0242   -2.3679   -2.1809 N.2       1 <0>        -0.4857
     16 C11        -1.8952   -2.7688   -1.5723 C.2       1 <0>         0.3305
     17 N5         -0.8268   -2.1217   -1.0690 N.2       1 <0>        -0.5308
     18 O1         -0.8956   -6.0728   -0.8118 O.2       1 <0>        -0.5290
     19 C12         3.6184    2.2069   -0.3834 C.3       1 <0>        -0.0005
     20 C13         3.9571    2.9795    0.8930 C.3       1 <0>         0.3523
     21 F1          2.9113    3.8572    1.1982 F         1 <0>        -0.1520
     22 F2          4.1341    2.0798    1.9496 F         1 <0>        -0.1528
     23 Cl1         5.4758    3.9182    0.6421 Cl        1 <0>        -0.1090
     24 Cl2         3.3902    3.3664   -1.7451 Cl        1 <0>        -0.1005
     25 H2         -0.9439    1.8898    0.3995 H         1 <0>         0.1364
     26 H3          1.1326    3.1649    0.0534 H         1 <0>         0.1350
     27 H4          3.3135   -0.4759   -0.3598 H         1 <0>         0.1332
     28 H5         -0.9008   -0.5704    0.3614 H         1 <0>         0.1460
     29 H6          2.0141   -2.5534    0.3149 H         1 <0>         0.4250
     30 H7         -4.7181   -3.3638   -2.9737 H         1 <0>         0.2305
     31 H8          4.4331    1.5230   -0.6212 H         1 <0>         0.1478
     32 H9         -3.4771   -5.4420   -2.1812 H         1 <0>         0.4326
@<TRIPOS>BOND
     1    1    6 ar
     2    1    2 ar
     3    1   25 1
     4    2    3 ar
     5    2   26 1
     6    3    4 ar
     7    3   19 1
     8    4    5 ar
     9    4   27 1
    10    5    6 ar
    11    5    7 1
    12    6   28 1
    13    7    8 1
    14    7   29 1
    15    8   17 2
    16    8    9 1
    17    9   10 1
    18    9   11 am
    19   11   12 1
    20   11   18 2
    21   12   16 2
    22   12   13 1
    23   13   14 1
    24   13   32 1
    25   14   15 2
    26   14   30 1
    27   15   16 1
    28   16   17 1
    29   19   20 1
    30   19   24 1
    31   19   31 1
    32   20   21 1
    33   20   22 1
    34   20   23 1
