@<TRIPOS>MOLECULE
ZINC16447827
   51    54     0     0     0
SMALL
USER_CHARGES
2-benzylsulfanyl-5-chloro-N-[4-(pyrimidin-2-ylsulfamoyl)phenyl]pyrimidine-4-carboxamide
@<TRIPOS>ATOM
      1 C1          0.3827    1.9032    0.1382 C.ar      1 <0>        -0.1085
      2 C2          1.6437    2.4635    0.2209 C.ar      1 <0>        -0.1190
      3 C3          2.7636    1.6540    0.1831 C.ar      1 <0>        -0.0990
      4 C4          2.6225    0.2841    0.0628 C.ar      1 <0>        -0.0884
      5 C5          1.3615   -0.2762   -0.0194 C.ar      1 <0>        -0.0988
      6 C6          0.2416    0.5333    0.0183 C.ar      1 <0>        -0.1189
      7 C7          3.8434   -0.5984    0.0216 C.3       1 <0>        -0.0705
      8 S1          4.3790   -0.8077   -1.6946 S.3       1 <0>         0.0419
      9 C8          5.7790   -1.8500   -1.4532 C.ar      1 <0>         0.2916
     10 N1          6.1094   -2.2122   -0.2205 N.ar      1 <0>        -0.4950
     11 C9          7.1487   -2.9961    0.0021 C.ar      1 <0>         0.1882
     12 C10         7.9098   -3.4363   -1.0742 C.ar      1 <0>        -0.1098
     13 C11         7.5392   -3.0332   -2.3586 C.ar      1 <0>         0.1547
     14 N2          6.4759   -2.2460   -2.5055 N.ar      1 <0>        -0.4685
     15 C12         8.3179   -3.4756   -3.5410 C.2       1 <0>         0.5715
     16 O1          9.2870   -4.1942   -3.3960 O.2       1 <0>        -0.4690
     17 N3          7.9506   -3.0806   -4.7761 N.am      1 <0>        -0.6543
     18 C13         8.7459   -3.4053   -5.8793 C.ar      1 <0>         0.2070
     19 C14        10.1266   -3.4768   -5.7451 C.ar      1 <0>        -0.1516
     20 C15        10.9088   -3.8034   -6.8355 C.ar      1 <0>         0.0398
     21 C16        10.3198   -4.0474   -8.0626 C.ar      1 <0>        -0.6850
     22 C17         8.9459   -3.9715   -8.2009 C.ar      1 <0>         0.0023
     23 C18         8.1575   -3.6515   -7.1132 C.ar      1 <0>        -0.1684
     24 S2         11.3220   -4.4566   -9.4529 S.o2      1 <0>         2.7001
     25 O2         12.5305   -4.9977   -8.9371 O.2       1 <0>        -0.9307
     26 O3         10.4909   -5.1728  -10.3559 O.2       1 <0>        -0.9435
     27 N4         11.7220   -3.0356  -10.2033 N.pl3     1 <0>        -1.0156
     28 C19        12.5149   -2.1077   -9.5507 C.ar      1 <0>         0.5625
     29 N5         12.6943   -2.2163   -8.2425 N.ar      1 <0>        -0.5587
     30 C20        13.4505   -1.3495   -7.5894 C.ar      1 <0>         0.1946
     31 C21        14.0487   -0.3129   -8.2885 C.ar      1 <0>        -0.2581
     32 C22        13.8356   -0.2257   -9.6553 C.ar      1 <0>         0.1875
     33 N6         13.0723   -1.1288  -10.2483 N.ar      1 <0>        -0.5389
     34 Cl1         9.2878   -4.4630   -0.8278 Cl        1 <0>         0.0101
     35 H1         -0.4921    2.5360    0.1628 H         1 <0>         0.1257
     36 H2          1.7540    3.5338    0.3146 H         1 <0>         0.1268
     37 H3          3.7488    2.0918    0.2477 H         1 <0>         0.1260
     38 H4          1.2513   -1.3465   -0.1135 H         1 <0>         0.1261
     39 H5         -0.7435    0.0955   -0.0463 H         1 <0>         0.1269
     40 H6          4.6448   -0.1370    0.5986 H         1 <0>         0.1081
     41 H7          3.6025   -1.5720    0.4484 H         1 <0>         0.1081
     42 H8          7.4068   -3.2882    1.0094 H         1 <0>         0.1930
     43 H9          7.1346   -2.5711   -4.8997 H         1 <0>         0.4255
     44 H10        10.5875   -3.2816   -4.7881 H         1 <0>         0.1439
     45 H11        11.9819   -3.8642   -6.7306 H         1 <0>         0.1541
     46 H12         8.4891   -4.1630   -9.1606 H         1 <0>         0.1451
     47 H13         7.0846   -3.5931   -7.2217 H         1 <0>         0.1382
     48 H14        11.4005   -2.8535  -11.1002 H         1 <0>         0.4410
     49 H15        13.5963   -1.4456   -6.5236 H         1 <0>         0.1784
     50 H16        14.6678    0.4109   -7.7794 H         1 <0>         0.1547
     51 H17        14.2875    0.5697  -10.2293 H         1 <0>         0.1766
@<TRIPOS>BOND
     1    1    6 ar
     2    1    2 ar
     3    1   35 1
     4    2    3 ar
     5    2   36 1
     6    3    4 ar
     7    3   37 1
     8    4    5 ar
     9    4    7 1
    10    5    6 ar
    11    5   38 1
    12    6   39 1
    13    7    8 1
    14    7   40 1
    15    7   41 1
    16    8    9 1
    17    9   14 ar
    18    9   10 ar
    19   10   11 ar
    20   11   12 ar
    21   11   42 1
    22   12   13 ar
    23   12   34 1
    24   13   14 ar
    25   13   15 1
    26   15   16 2
    27   15   17 am
    28   17   18 1
    29   17   43 1
    30   18   23 ar
    31   18   19 ar
    32   19   20 ar
    33   19   44 1
    34   20   21 ar
    35   20   45 1
    36   21   22 ar
    37   21   24 1
    38   22   23 ar
    39   22   46 1
    40   23   47 1
    41   24   25 2
    42   24   26 2
    43   24   27 1
    44   27   28 1
    45   27   48 1
    46   28   33 ar
    47   28   29 ar
    48   29   30 ar
    49   30   31 ar
    50   30   49 1
    51   31   32 ar
    52   31   50 1
    53   32   33 ar
    54   32   51 1
