@<TRIPOS>MOLECULE
ZINC11191710
   29    30     0     0     0
SMALL
USER_CHARGES
2-[(4-amino-5-methyl-1,2,4-triazol-3-yl)sulfanyl]-N-(5-methyl-1,3,4-thiadiazol-2-yl)-acetamide
@<TRIPOS>ATOM
      1 C1         -0.8777  -10.5500   -0.0489 C.3       1 <0>        -0.0703
      2 C2         -0.4891   -9.0940   -0.0442 C.2       1 <0>         0.1542
      3 N1          0.7240   -8.6186   -0.0531 N.2       1 <0>        -0.2683
      4 N2          0.6944   -7.3337   -0.0503 N.2       1 <0>        -0.2911
      5 C3         -0.5502   -6.9163   -0.0309 C.2       1 <0>         0.1640
      6 N3         -1.3445   -8.0270   -0.0297 N.pl3     1 <0>        -0.3071
      7 N4         -2.7099   -8.0645   -0.0168 N.3       1 <0>        -0.5850
      8 S1         -1.0931   -5.2401   -0.0169 S.3       1 <0>         0.1232
      9 C4          0.5058   -4.3918   -0.0269 C.3       1 <0>        -0.1568
     10 C5          0.2837   -2.9013   -0.0167 C.2       1 <0>         0.5310
     11 O1         -0.8445   -2.4564   -0.0040 O.2       1 <0>        -0.4487
     12 N5          1.3388   -2.0627   -0.0218 N.am      1 <0>        -0.6073
     13 C6          1.1339   -0.6872   -0.0125 C.2       1 <0>         0.2620
     14 N6          0.0021   -0.0041    0.0020 N.2       1 <0>        -0.2884
     15 N7         -0.0150    1.2581    0.0090 N.2       1 <0>        -0.2473
     16 C7          1.1097    1.9454    0.0019 C.2       1 <0>         0.0543
     17 S2          2.2962    0.6067   -0.0166 S.3       1 <0>         0.0248
     18 C8          1.3327    3.4358    0.0074 C.3       1 <0>        -0.0601
     19 H1         -0.9813  -10.8951   -1.0776 H         1 <0>         0.0903
     20 H2         -0.1066  -11.1335    0.4542 H         1 <0>         0.1039
     21 H3         -1.8263  -10.6746    0.4734 H         1 <0>         0.0771
     22 H4         -3.0804   -8.0694   -0.9553 H         1 <0>         0.3697
     23 H5         -3.0448   -8.8583    0.5083 H         1 <0>         0.3784
     24 H6          1.0594   -4.6706   -0.9235 H         1 <0>         0.1360
     25 H7          1.0756   -4.6803    0.8564 H         1 <0>         0.1366
     26 H8          2.2411   -2.4186   -0.0320 H         1 <0>         0.4332
     27 H9          1.3965    3.7898    1.0363 H         1 <0>         0.0972
     28 H10         2.2616    3.6660   -0.5144 H         1 <0>         0.0917
     29 H11         0.5013    3.9294   -0.4958 H         1 <0>         0.1030
@<TRIPOS>BOND
     1    1    2 1
     2    1   19 1
     3    1   20 1
     4    1   21 1
     5    2    6 1
     6    2    3 2
     7    3    4 1
     8    4    5 2
     9    5    6 1
    10    5    8 1
    11    6    7 1
    12    7   22 1
    13    7   23 1
    14    8    9 1
    15    9   10 1
    16    9   24 1
    17    9   25 1
    18   10   11 2
    19   10   12 am
    20   12   13 1
    21   12   26 1
    22   13   17 1
    23   13   14 2
    24   14   15 1
    25   15   16 2
    26   16   17 1
    27   16   18 1
    28   18   27 1
    29   18   28 1
    30   18   29 1
