@<TRIPOS>MOLECULE
ZINC14830509
   54    57     0     0     0
SMALL
USER_CHARGES
4-[[2-[[5-(4-fluorophenyl)-4-[[(2R)-tetrahydrofuran-2-yl]methyl]-1,2,4-triazol-3-yl]sulfanyl]acetyl]amino]benzamide
@<TRIPOS>ATOM
      1 C1        -11.5590   10.6328    1.5330 C.ar      1 <0>        -0.0444
      2 C2        -12.3602   11.7191    1.8158 C.ar      1 <0>        -0.1468
      3 C3        -11.8505   13.0039    1.7163 C.ar      1 <0>         0.1150
      4 C4        -10.5328   13.2045    1.3367 C.ar      1 <0>        -0.1476
      5 C5         -9.7215   12.1252    1.0558 C.ar      1 <0>        -0.0941
      6 C6        -10.2297   10.8289    1.1549 C.ar      1 <0>        -0.0251
      7 C7         -9.3649    9.6682    0.8545 C.2       1 <0>         0.2211
      8 N1         -9.7636    8.4448    0.5943 N.2       1 <0>        -0.2615
      9 N2         -8.7473    7.6898    0.3735 N.2       1 <0>        -0.2949
     10 C8         -7.6367    8.3830    0.4881 C.2       1 <0>         0.1607
     11 N3         -7.9904    9.6663    0.7945 N.pl3     1 <0>        -0.4507
     12 C9         -7.0932   10.8036    1.0132 C.3       1 <0>         0.0934
     13 C10        -6.8108   11.4945   -0.3223 C.3       1 <0>         0.0573
     14 H1         -7.7453   11.7853   -0.8022 H         1 <0>         0.0819
     15 C11        -5.9065   12.7340   -0.1059 C.3       1 <0>        -0.1499
     16 C12        -5.2449   12.8641   -1.5050 C.3       1 <0>        -0.1540
     17 C13        -5.1135   11.3897   -1.9436 C.3       1 <0>         0.0494
     18 O1         -6.0573   10.6262   -1.1834 O.3       1 <0>        -0.3617
     19 S1         -5.9973    7.7725    0.2780 S.3       1 <0>         0.1132
     20 C14        -6.3536    6.0385   -0.0996 C.3       1 <0>        -0.1584
     21 C15        -5.0608    5.2974   -0.3241 C.2       1 <0>         0.5381
     22 O2         -4.0027    5.8838   -0.2374 O.2       1 <0>        -0.5002
     23 N4         -5.0804    3.9830   -0.6213 N.am      1 <0>        -0.6662
     24 C16        -3.8840    3.2754   -0.7329 C.ar      1 <0>         0.1714
     25 C17        -3.8173    1.9529   -0.3060 C.ar      1 <0>        -0.1494
     26 C18        -2.6378    1.2514   -0.4151 C.ar      1 <0>        -0.0374
     27 C19        -1.5066    1.8691   -0.9553 C.ar      1 <0>        -0.1549
     28 C20        -1.5756    3.1993   -1.3782 C.ar      1 <0>        -0.0654
     29 C21        -2.7597    3.8935   -1.2711 C.ar      1 <0>        -0.1285
     30 C22        -0.2402    1.1202   -1.0733 C.2       1 <0>         0.5648
     31 O3         -0.1804   -0.0354   -0.7004 O.2       1 <0>        -0.5403
     32 N5          0.8483    1.7157   -1.5996 N.am      1 <0>        -0.8513
     33 F1        -12.6410   14.0648    1.9899 F         1 <0>        -0.1327
     34 H2        -11.9584    9.6321    1.6068 H         1 <0>         0.1489
     35 H3        -13.3880   11.5684    2.1114 H         1 <0>         0.1468
     36 H4        -10.1407   14.2079    1.2603 H         1 <0>         0.1440
     37 H5         -8.6950   12.2827    0.7593 H         1 <0>         0.1375
     38 H6         -7.5634   11.5112    1.6961 H         1 <0>         0.1205
     39 H7         -6.1568   10.4499    1.4445 H         1 <0>         0.1113
     40 H8         -6.5001   13.6168    0.1315 H         1 <0>         0.0904
     41 H9         -5.1599   12.5457    0.6657 H         1 <0>         0.0879
     42 H10        -4.2648   13.3349   -1.4284 H         1 <0>         0.0880
     43 H11        -5.8865   13.4171   -2.1910 H         1 <0>         0.0795
     44 H12        -4.1030   11.0332   -1.7439 H         1 <0>         0.0757
     45 H13        -5.3354   11.2991   -3.0069 H         1 <0>         0.0713
     46 H14        -6.9663    5.9811   -0.9992 H         1 <0>         0.1326
     47 H15        -6.8905    5.5878    0.7351 H         1 <0>         0.1314
     48 H16        -5.9267    3.5291   -0.7577 H         1 <0>         0.4188
     49 H17        -4.6918    1.4762    0.1117 H         1 <0>         0.1366
     50 H18        -2.5868    0.2247   -0.0839 H         1 <0>         0.1428
     51 H19        -0.7021    3.6809   -1.7923 H         1 <0>         0.1311
     52 H20        -2.8148    4.9202   -1.6015 H         1 <0>         0.1467
     53 H21         1.6794    1.2223   -1.6809 H         1 <0>         0.4063
     54 H22         0.8005    2.6377   -1.8972 H         1 <0>         0.4011
@<TRIPOS>BOND
     1    1    6 ar
     2    1    2 ar
     3    1   34 1
     4    2    3 ar
     5    2   35 1
     6    3    4 ar
     7    3   33 1
     8    4    5 ar
     9    4   36 1
    10    5    6 ar
    11    5   37 1
    12    6    7 1
    13    7   11 1
    14    7    8 2
    15    8    9 1
    16    9   10 2
    17   10   11 1
    18   10   19 1
    19   11   12 1
    20   12   13 1
    21   12   38 1
    22   12   39 1
    23   13   14 1
    24   13   18 1
    25   13   15 1
    26   15   16 1
    27   15   40 1
    28   15   41 1
    29   16   17 1
    30   16   42 1
    31   16   43 1
    32   17   18 1
    33   17   44 1
    34   17   45 1
    35   19   20 1
    36   20   21 1
    37   20   46 1
    38   20   47 1
    39   21   22 2
    40   21   23 am
    41   23   24 1
    42   23   48 1
    43   24   29 ar
    44   24   25 ar
    45   25   26 ar
    46   25   49 1
    47   26   27 ar
    48   26   50 1
    49   27   28 ar
    50   27   30 1
    51   28   29 ar
    52   28   51 1
    53   29   52 1
    54   30   31 2
    55   30   32 am
    56   32   53 1
    57   32   54 1
