@<TRIPOS>MOLECULE
ZINC62937672
   46    46     0     0     0
SMALL
USER_CHARGES

@<TRIPOS>ATOM
      1 C1         -0.0187    1.5258    0.0104 C.3       1 <0>        -0.1516
      2 C2          0.0021   -0.0041    0.0020 C.3       1 <0>        -0.1365
      3 C3          0.7182   -0.4975   -1.2568 C.3       1 <0>        -0.0926
      4 C4          0.7390   -2.0273   -1.2652 C.3       1 <0>        -0.1494
      5 C5         -0.6970   -2.5821   -1.3645 C.3       1 <0>        -0.1187
      6 C6         -0.7248   -3.3902   -2.6796 C.3       1 <0>        -0.0051
      7 N1          0.3655   -2.8049   -3.5017 N.4       1 <0>        -0.3850
      8 C7          1.4580   -2.5469   -2.5287 C.3       1 <0>         0.0140
      9 C8          0.8056   -3.7606   -4.5269 C.3       1 <0>        -0.0217
     10 C9         -0.3081   -3.9830   -5.5175 C.2       1 <0>         0.5121
     11 O1         -1.3640   -3.4028   -5.3828 O.2       1 <0>        -0.4533
     12 N2         -0.1302   -4.8270   -6.5531 N.am      1 <0>        -0.6803
     13 C10        -1.1262   -5.0259   -7.4390 C.2       1 <0>         0.6937
     14 O2         -2.1848   -4.4443   -7.3040 O.2       1 <0>        -0.5199
     15 N3         -0.9484   -5.8699   -8.4747 N.am      1 <0>        -0.7267
     16 C11        -2.0310   -6.0861   -9.4377 C.3       1 <0>         0.1506
     17 C12        -1.4410   -6.5344  -10.7762 C.3       1 <0>        -0.1629
     18 C13        -2.9755   -7.1674   -8.9089 C.3       1 <0>        -0.1678
     19 C14         1.4187   -2.5475   -0.0249 C.2       1 <0>         0.5104
     20 O3          0.9774   -2.2652    1.0761 O.co2     1 <0>        -0.6537
     21 O4          2.4100   -3.2506   -0.1224 O.co2     1 <0>        -0.6829
     22 H1          1.0039    1.9031    0.0027 H         1 <0>         0.0501
     23 H2         -0.5459    1.8868   -0.8726 H         1 <0>         0.0429
     24 H3         -0.5289    1.8773    0.9072 H         1 <0>         0.0537
     25 H4          0.5293   -0.3651    0.8851 H         1 <0>         0.1093
     26 H5         -1.0205   -0.3814    0.0098 H         1 <0>         0.0559
     27 H6          0.1910   -0.1364   -2.1398 H         1 <0>         0.0467
     28 H7          1.7408   -0.1202   -1.2645 H         1 <0>         0.0661
     29 H8         -0.9113   -3.2321   -0.5162 H         1 <0>         0.1091
     30 H9         -1.4166   -1.7645   -1.4073 H         1 <0>         0.0932
     31 H10        -0.5284   -4.4441   -2.4825 H         1 <0>         0.1246
     32 H11        -1.6854   -3.2688   -3.1802 H         1 <0>         0.1368
     33 H12         2.1409   -1.7905   -2.9156 H         1 <0>         0.1251
     34 H13         1.9960   -3.4688   -2.3079 H         1 <0>         0.1495
     35 H14         1.6781   -3.3620   -5.0445 H         1 <0>         0.1619
     36 H15         1.0652   -4.7074   -4.0534 H         1 <0>         0.1641
     37 H16         0.7146   -5.2912   -6.6609 H         1 <0>         0.4177
     38 H17        -0.1035   -6.3341   -8.5824 H         1 <0>         0.4008
     39 H18        -2.5840   -5.1572   -9.5772 H         1 <0>         0.0930
     40 H19        -0.8879   -7.4633  -10.6366 H         1 <0>         0.0640
     41 H20        -2.2465   -6.6953  -11.4927 H         1 <0>         0.0798
     42 H21        -0.7681   -5.7641  -11.1529 H         1 <0>         0.0638
     43 H22        -2.4225   -8.0963   -8.7693 H         1 <0>         0.0592
     44 H23        -3.3958   -6.8480   -7.9552 H         1 <0>         0.0613
     45 H24        -3.7810   -7.3283   -9.6253 H         1 <0>         0.0722
     46 H25         0.0618   -1.9424   -3.9282 H         1 <0>         0.4262
@<TRIPOS>BOND
     1    1    2 1
     2    1   22 1
     3    1   23 1
     4    1   24 1
     5    2    3 1
     6    2   25 1
     7    2   26 1
     8    3    4 1
     9    3   27 1
    10    3   28 1
    11    4    8 1
    12    4    5 1
    13    4   19 1
    14    5    6 1
    15    5   29 1
    16    5   30 1
    17    6    7 1
    18    6   31 1
    19    6   32 1
    20    7    8 1
    21    7    9 1
    22    7   46 1
    23    8   33 1
    24    8   34 1
    25    9   10 1
    26    9   35 1
    27    9   36 1
    28   10   11 2
    29   10   12 am
    30   12   13 am
    31   12   37 1
    32   13   14 2
    33   13   15 am
    34   15   16 1
    35   15   38 1
    36   16   17 1
    37   16   18 1
    38   16   39 1
    39   17   40 1
    40   17   41 1
    41   17   42 1
    42   18   43 1
    43   18   44 1
    44   18   45 1
    45   19   20 2
    46   19   21 1
