@<TRIPOS>MOLECULE
ZINC12912222
   62    65     0     0     0
SMALL
USER_CHARGES
[(1S)-1-methyl-2-(2-naphthylamino)-2-oxo-ethyl] (2R)-2-[(2-fluorophenyl)sulfonylamino]-3-phenyl-propanoate
@<TRIPOS>ATOM
      1 C1          2.1621   11.7011   -2.0378 C.3       1 <0>        -0.1684
      2 C2          2.4779   10.7496   -0.8820 C.3       1 <0>         0.0702
      3 H1          1.8017   10.9504   -0.0510 H         1 <0>         0.1194
      4 C3          2.3003    9.3252   -1.3411 C.2       1 <0>         0.5190
      5 O1          3.2374    8.5559   -1.3074 O.2       1 <0>        -0.4902
      6 N1          1.1002    8.9063   -1.7892 N.am      1 <0>        -0.6697
      7 C4          0.9077    7.5607   -2.1192 C.ar      1 <0>         0.1567
      8 C5          1.5690    6.5667   -1.3881 C.ar      1 <0>        -0.1145
      9 C6          1.4006    5.2515   -1.6865 C.ar      1 <0>        -0.0849
     10 C7          0.5523    4.8755   -2.7428 C.ar      1 <0>        -0.0627
     11 C8          0.3595    3.5235   -3.0741 C.ar      1 <0>        -0.1001
     12 C9         -0.4681    3.1928   -4.1028 C.ar      1 <0>        -0.1212
     13 C10        -1.1261    4.1763   -4.8393 C.ar      1 <0>        -0.1108
     14 C11        -0.9681    5.4953   -4.5442 C.ar      1 <0>        -0.1108
     15 C12        -0.1211    5.8755   -3.4884 C.ar      1 <0>        -0.0318
     16 C13         0.0694    7.2275   -3.1596 C.ar      1 <0>        -0.1381
     17 O2          3.8493   10.9514   -0.4498 O.3       1 <0>        -0.3240
     18 C14         4.0569   11.8632    0.5131 C.2       1 <0>         0.4523
     19 O3          3.1235   12.4726    0.9794 O.2       1 <0>        -0.4819
     20 C15         5.4540   12.1269    1.0126 C.3       1 <0>         0.1593
     21 H2          5.8717   11.2085    1.4252 H         1 <0>         0.1391
     22 C16         6.3278   12.6087   -0.1472 C.3       1 <0>        -0.0823
     23 C17         7.7332   12.8403    0.3452 C.ar      1 <0>        -0.0882
     24 C18         8.0796   14.0587    0.8987 C.ar      1 <0>        -0.1110
     25 C19         9.3674   14.2695    1.3548 C.ar      1 <0>        -0.1165
     26 C20        10.3116   13.2655    1.2477 C.ar      1 <0>        -0.1155
     27 C21         9.9665   12.0490    0.6893 C.ar      1 <0>        -0.1147
     28 C22         8.6773   11.8363    0.2380 C.ar      1 <0>        -0.1126
     29 N2          5.4140   13.1562    2.0543 N.pl3     1 <0>        -1.0892
     30 S1          5.3954   12.7180    3.6511 S.o2      1 <0>         2.6914
     31 O4          5.3409   13.9229    4.4024 O.2       1 <0>        -0.9429
     32 O5          4.4177   11.6950    3.7801 O.2       1 <0>        -0.9351
     33 C23         6.9527   11.9737    4.0053 C.ar      1 <0>        -0.7128
     34 C24         7.8890   12.6551    4.7600 C.ar      1 <0>         0.0110
     35 C25         9.1085   12.0692    5.0429 C.ar      1 <0>        -0.1431
     36 C26         9.3978   10.8056    4.5617 C.ar      1 <0>        -0.0314
     37 C27         8.4656   10.1249    3.8022 C.ar      1 <0>        -0.1637
     38 C28         7.2413   10.7086    3.5230 C.ar      1 <0>         0.1899
     39 F1          6.3292   10.0441    2.7802 F         1 <0>        -0.1171
     40 H3          2.2906   12.7313   -1.7057 H         1 <0>         0.0804
     41 H4          2.8383   11.5003   -2.8688 H         1 <0>         0.0777
     42 H5          1.1326   11.5496   -2.3622 H         1 <0>         0.0829
     43 H6          0.3700    9.5379   -1.8829 H         1 <0>         0.4135
     44 H7          2.2218    6.8489   -0.5753 H         1 <0>         0.1358
     45 H8          1.9180    4.4963   -1.1134 H         1 <0>         0.1327
     46 H9          0.8659    2.7504   -2.5153 H         1 <0>         0.1277
     47 H10        -0.6137    2.1528   -4.3550 H         1 <0>         0.1235
     48 H11        -1.7741    3.8871   -5.6534 H         1 <0>         0.1237
     49 H12        -1.4875    6.2465   -5.1207 H         1 <0>         0.1270
     50 H13        -0.4372    8.0000   -3.7189 H         1 <0>         0.1320
     51 H14         6.3380   11.8531   -0.9327 H         1 <0>         0.1066
     52 H15         5.9237   13.5400   -0.5441 H         1 <0>         0.0913
     53 H16         7.3431   14.8446    0.9783 H         1 <0>         0.1217
     54 H17         9.6371   15.2201    1.7907 H         1 <0>         0.1232
     55 H18        11.3189   13.4318    1.5999 H         1 <0>         0.1209
     56 H19        10.7043   11.2647    0.6053 H         1 <0>         0.1220
     57 H20         8.4079   10.8860   -0.1985 H         1 <0>         0.1245
     58 H21         5.3985   14.0945    1.8087 H         1 <0>         0.4260
     59 H22         7.6658   13.6440    5.1327 H         1 <0>         0.1526
     60 H23         9.8377   12.6006    5.6364 H         1 <0>         0.1416
     61 H24        10.3529   10.3508    4.7792 H         1 <0>         0.1428
     62 H25         8.6919    9.1381    3.4262 H         1 <0>         0.1469
@<TRIPOS>BOND
     1    1    2 1
     2    1   40 1
     3    1   41 1
     4    1   42 1
     5    2    3 1
     6    2    4 1
     7    2   17 1
     8    4    5 2
     9    4    6 am
    10    6    7 1
    11    6   43 1
    12    7   16 ar
    13    7    8 ar
    14    8    9 ar
    15    8   44 1
    16    9   10 ar
    17    9   45 1
    18   10   15 ar
    19   10   11 ar
    20   11   12 ar
    21   11   46 1
    22   12   13 ar
    23   12   47 1
    24   13   14 ar
    25   13   48 1
    26   14   15 ar
    27   14   49 1
    28   15   16 ar
    29   16   50 1
    30   17   18 1
    31   18   19 2
    32   18   20 1
    33   20   21 1
    34   20   22 1
    35   20   29 1
    36   22   23 1
    37   22   51 1
    38   22   52 1
    39   23   28 ar
    40   23   24 ar
    41   24   25 ar
    42   24   53 1
    43   25   26 ar
    44   25   54 1
    45   26   27 ar
    46   26   55 1
    47   27   28 ar
    48   27   56 1
    49   28   57 1
    50   29   30 1
    51   29   58 1
    52   30   31 2
    53   30   32 2
    54   30   33 1
    55   33   38 ar
    56   33   34 ar
    57   34   35 ar
    58   34   59 1
    59   35   36 ar
    60   35   60 1
    61   36   37 ar
    62   36   61 1
    63   37   38 ar
    64   37   62 1
    65   38   39 1
