@<TRIPOS>MOLECULE
ZINC00642379
   45    48     0     0     0
SMALL
USER_CHARGES
4-amino-2-(4-benzyloxyphenyl)-9-methyl-5-oxa-7,8-diazabicyclo[4.3.0]nona-3,8,10-triene-3-carbonitrile
@<TRIPOS>ATOM
      1 C1         -2.0206    4.6561    3.1305 C.3       1 <0>        -0.0789
      2 C2         -3.1339    3.7920    2.5969 C.2       1 <0>         0.1214
      3 C3         -3.3448    3.4650    1.2642 C.2       1 <0>        -0.2623
      4 C4         -4.4518    2.6661    1.1939 C.2       1 <0>         0.2738
      5 N1         -4.9135    2.5016    2.4439 N.pl3     1 <0>        -0.4497
      6 H1         -5.7142    1.9649    2.7100 H         1 <0>         0.4532
      7 N2         -4.0725    3.2169    3.3108 N.2       1 <0>        -0.2643
      8 O1         -4.9266    2.1739    0.0227 O.3       1 <0>        -0.2319
      9 C5         -4.4473    2.7078   -1.1191 C.2       1 <0>         0.4374
     10 C6         -3.3549    3.5013   -1.1780 C.2       1 <0>        -0.2561
     11 C7         -2.5534    3.8670    0.0464 C.3       1 <0>         0.1262
     12 H2         -2.3749    4.9422    0.0615 H         1 <0>         0.0958
     13 C8         -1.2372    3.1333    0.0303 C.ar      1 <0>        -0.1092
     14 C9         -1.2178    1.7508    0.0173 C.ar      1 <0>        -0.0589
     15 C10        -0.0126    1.0758    0.0080 C.ar      1 <0>        -0.1501
     16 C11         1.1790    1.7863    0.0004 C.ar      1 <0>         0.1293
     17 C12         1.1568    3.1735    0.0081 C.ar      1 <0>        -0.2070
     18 C13        -0.0511    3.8437    0.0233 C.ar      1 <0>        -0.0695
     19 O2          2.3659    1.1247   -0.0150 O.3       1 <0>        -0.3096
     20 C14         3.5525    1.9209   -0.0220 C.3       1 <0>         0.1026
     21 C15         4.7612    1.0211   -0.0390 C.ar      1 <0>        -0.0981
     22 C16         5.3307    0.6060    1.1503 C.ar      1 <0>        -0.0953
     23 C17         6.4362   -0.2237    1.1348 C.ar      1 <0>        -0.1231
     24 C18         6.9789   -0.6295   -0.0701 C.ar      1 <0>        -0.1094
     25 C19         6.4129   -0.2099   -1.2594 C.ar      1 <0>        -0.1231
     26 C20         5.3039    0.6152   -1.2438 C.ar      1 <0>        -0.0956
     27 C21        -2.9433    4.0145   -2.4499 C.1       1 <0>         0.2712
     28 N3         -2.6168    4.4215   -3.4590 N.1       1 <0>        -0.4390
     29 N4         -5.1071    2.4285   -2.2900 N.pl3     1 <0>        -0.8319
     30 H3         -1.1591    4.0325    3.3693 H         1 <0>         0.0844
     31 H4         -1.7388    5.3919    2.3773 H         1 <0>         0.0826
     32 H5         -2.3586    5.1691    4.0310 H         1 <0>         0.0784
     33 H6         -2.1457    1.1981    0.0183 H         1 <0>         0.1185
     34 H7          0.0021   -0.0041    0.0020 H         1 <0>         0.1278
     35 H8          2.0830    3.7288    0.0019 H         1 <0>         0.1274
     36 H9         -0.0689    4.9236    0.0293 H         1 <0>         0.1258
     37 H10         3.5592    2.5551   -0.9085 H         1 <0>         0.0713
     38 H11         3.5766    2.5449    0.8714 H         1 <0>         0.0721
     39 H12         4.9094    0.9267    2.0916 H         1 <0>         0.1244
     40 H13         6.8782   -0.5518    2.0639 H         1 <0>         0.1258
     41 H14         7.8449   -1.2747   -0.0822 H         1 <0>         0.1247
     42 H15         6.8369   -0.5270   -2.2007 H         1 <0>         0.1256
     43 H16         4.8617    0.9430   -2.1730 H         1 <0>         0.1240
     44 H17        -4.7861    2.7978   -3.1275 H         1 <0>         0.4278
     45 H18        -5.8944    1.8620   -2.2798 H         1 <0>         0.4112
@<TRIPOS>BOND
     1    1    2 1
     2    1   30 1
     3    1   31 1
     4    1   32 1
     5    2    7 2
     6    2    3 1
     7    3   11 1
     8    3    4 2
     9    4    5 1
    10    4    8 1
    11    5    6 1
    12    5    7 1
    13    8    9 1
    14    9   10 2
    15    9   29 1
    16   10   11 1
    17   10   27 1
    18   11   12 1
    19   11   13 1
    20   13   18 ar
    21   13   14 ar
    22   14   15 ar
    23   14   33 1
    24   15   16 ar
    25   15   34 1
    26   16   17 ar
    27   16   19 1
    28   17   18 ar
    29   17   35 1
    30   18   36 1
    31   19   20 1
    32   20   21 1
    33   20   37 1
    34   20   38 1
    35   21   26 ar
    36   21   22 ar
    37   22   23 ar
    38   22   39 1
    39   23   24 ar
    40   23   40 1
    41   24   25 ar
    42   24   41 1
    43   25   26 ar
    44   25   42 1
    45   26   43 1
    46   27   28 3
    47   29   44 1
    48   29   45 1
