@<TRIPOS>MOLECULE
ZINC60347005
   51    53     0     0     0
SMALL
USER_CHARGES

@<TRIPOS>ATOM
      1 C1          0.0116    1.5276    0.0043 C.3       1 <0>        -0.1434
      2 C2          0.0201   -0.0024   -0.0018 C.3       1 <0>        -0.1125
      3 C3          0.7307   -0.5035   -1.2607 C.3       1 <0>        -0.5992
      4 S1          0.7408   -2.3174   -1.2679 S.o2      1 <0>         2.5029
      5 O1          1.5713   -2.8064   -0.2237 O.2       1 <0>        -0.9488
      6 O2         -0.5802   -2.8135   -1.4353 O.2       1 <0>        -0.9077
      7 C4          1.5788   -2.7597   -2.7534 C.ar      1 <0>        -0.6080
      8 C5          2.7869   -3.4236   -2.6944 C.ar      1 <0>        -0.0277
      9 C6          3.4462   -3.7715   -3.8597 C.ar      1 <0>        -0.1053
     10 C7          2.8999   -3.4563   -5.0915 C.ar      1 <0>        -0.0729
     11 C8          1.6929   -2.7928   -5.1647 C.ar      1 <0>        -0.1017
     12 C9          1.0193   -2.4443   -3.9926 C.ar      1 <0>        -0.0536
     13 C10        -0.2776   -1.7386   -4.0635 C.2       1 <0>         0.5395
     14 O3         -0.8592   -1.4316   -3.0410 O.2       1 <0>        -0.4795
     15 N1         -0.8152   -1.4355   -5.2616 N.am      1 <0>        -0.6564
     16 C11        -2.0952   -0.8719   -5.3323 C.ar      1 <0>         0.1855
     17 C12        -3.0055   -1.0850   -4.3049 C.ar      1 <0>        -0.1347
     18 C13        -4.2672   -0.5301   -4.3745 C.ar      1 <0>        -0.0342
     19 C14        -4.6267    0.2424   -5.4723 C.ar      1 <0>        -0.1868
     20 C15        -3.7160    0.4558   -6.4994 C.ar      1 <0>        -0.0338
     21 C16        -2.4523   -0.0952   -6.4268 C.ar      1 <0>        -0.1231
     22 C17        -1.4624    0.1409   -7.5383 C.3       1 <0>        -0.1179
     23 S2         -6.2377    0.9505   -5.5618 S.3       1 <0>         0.1411
     24 C18        -6.0243    2.5775   -4.9198 C.2       1 <0>         0.0080
     25 N2         -6.9082    3.5508   -4.8468 N.2       1 <0>        -0.4966
     26 C19        -6.5883    4.7246   -4.3326 C.2       1 <0>         0.0746
     27 C20        -5.3175    4.8770   -3.8878 C.2       1 <0>        -0.2388
     28 S3         -4.6435    3.2626   -4.2443 S.3       1 <0>         0.1178
     29 C21        -7.5923    5.8451   -4.2449 C.3       1 <0>        -0.0808
     30 H1          1.0372    1.8966   -0.0053 H         1 <0>         0.0573
     31 H2         -0.5137    1.8915   -0.8787 H         1 <0>         0.0587
     32 H3         -0.4946    1.8845    0.9012 H         1 <0>         0.0631
     33 H4          0.5455   -0.3663    0.8812 H         1 <0>         0.0760
     34 H5         -1.0054   -0.3715    0.0078 H         1 <0>         0.0822
     35 H6          0.2054   -0.1395   -2.1437 H         1 <0>         0.1483
     36 H7          1.7563   -0.1344   -1.2703 H         1 <0>         0.1238
     37 H8          3.2190   -3.6719   -1.7362 H         1 <0>         0.1561
     38 H9          4.3916   -4.2911   -3.8080 H         1 <0>         0.1436
     39 H10         3.4201   -3.7302   -5.9975 H         1 <0>         0.1427
     40 H11         1.2678   -2.5471   -6.1267 H         1 <0>         0.1355
     41 H12        -0.3155   -1.6077   -6.0750 H         1 <0>         0.4153
     42 H13        -2.7260   -1.6854   -3.4517 H         1 <0>         0.1664
     43 H14        -4.9751   -0.6965   -3.5760 H         1 <0>         0.1415
     44 H15        -3.9953    1.0557   -7.3529 H         1 <0>         0.1391
     45 H16        -1.5666   -0.6416   -8.2899 H         1 <0>         0.0769
     46 H17        -1.6540    1.1117   -7.9954 H         1 <0>         0.0780
     47 H18        -0.4505    0.1233   -7.1334 H         1 <0>         0.0644
     48 H19        -4.8440    5.7369   -3.4376 H         1 <0>         0.1966
     49 H20        -8.1205    5.7860   -3.2933 H         1 <0>         0.0767
     50 H21        -7.0756    6.8022   -4.3148 H         1 <0>         0.0762
     51 H22        -8.3070    5.7574   -5.0632 H         1 <0>         0.0761
@<TRIPOS>BOND
     1    1    2 1
     2    1   30 1
     3    1   31 1
     4    1   32 1
     5    2    3 1
     6    2   33 1
     7    2   34 1
     8    3    4 1
     9    3   35 1
    10    3   36 1
    11    4    5 2
    12    4    6 2
    13    4    7 1
    14    7   12 ar
    15    7    8 ar
    16    8    9 ar
    17    8   37 1
    18    9   10 ar
    19    9   38 1
    20   10   11 ar
    21   10   39 1
    22   11   12 ar
    23   11   40 1
    24   12   13 1
    25   13   14 2
    26   13   15 am
    27   15   16 1
    28   15   41 1
    29   16   21 ar
    30   16   17 ar
    31   17   18 ar
    32   17   42 1
    33   18   19 ar
    34   18   43 1
    35   19   20 ar
    36   19   23 1
    37   20   21 ar
    38   20   44 1
    39   21   22 1
    40   22   45 1
    41   22   46 1
    42   22   47 1
    43   23   24 1
    44   24   28 1
    45   24   25 2
    46   25   26 1
    47   26   27 2
    48   26   29 1
    49   27   28 1
    50   27   48 1
    51   29   49 1
    52   29   50 1
    53   29   51 1
