@<TRIPOS>MOLECULE
ZINC11596100
   46    48     0     0     0
SMALL
USER_CHARGES
(3-carbamoyl-2-thienyl)carbamoylmethyl 2-[(2-methylthiazol-4-yl)methylsulfanyl]benzoate
@<TRIPOS>ATOM
      1 C1         -9.6044    7.0885   -2.2389 C.3       1 <0>        -0.0667
      2 C2         -9.3079    6.1943   -1.0627 C.2       1 <0>         0.0997
      3 N1         -8.8981    4.9469   -1.0577 N.2       1 <0>        -0.5032
      4 C3         -8.6822    4.2994    0.0682 C.2       1 <0>         0.0732
      5 C4         -8.8988    4.9511    1.2391 C.2       1 <0>        -0.1978
      6 S1         -9.4197    6.5497    0.6334 S.3       1 <0>         0.0493
      7 C5         -8.2118    2.8677    0.0573 C.3       1 <0>        -0.0906
      8 S2         -6.4023    2.8272    0.0490 S.3       1 <0>         0.0234
      9 C6         -6.1353    1.0856    0.0370 C.ar      1 <0>        -0.0411
     10 C7         -7.2174    0.2123    0.0369 C.ar      1 <0>        -0.1514
     11 C8         -7.0055   -1.1503    0.0276 C.ar      1 <0>        -0.0553
     12 C9         -5.7163   -1.6609    0.0182 C.ar      1 <0>        -0.1424
     13 C10        -4.6314   -0.8128    0.0137 C.ar      1 <0>        -0.0359
     14 C11        -4.8280    0.5713    0.0281 C.ar      1 <0>        -0.1243
     15 C12        -3.6726    1.4840    0.0275 C.2       1 <0>         0.5080
     16 O1         -3.8482    2.6866    0.0349 O.2       1 <0>        -0.4775
     17 O2         -2.4203    0.9858    0.0189 O.3       1 <0>        -0.3262
     18 C13        -1.3296    1.9443    0.0189 C.3       1 <0>         0.0573
     19 C14        -0.0144    1.2086    0.0087 C.2       1 <0>         0.5094
     20 O3          0.0021   -0.0041    0.0020 O.2       1 <0>        -0.4750
     21 N2          1.1435    1.8983    0.0013 N.am      1 <0>        -0.6075
     22 C15         2.3536    1.2214   -0.0139 C.2       1 <0>         0.1177
     23 C16         3.6387    1.7505   -0.0289 C.2       1 <0>        -0.2603
     24 C17         4.7298    0.8055   -0.0384 C.2       1 <0>        -0.1070
     25 C18         4.4105   -0.5012   -0.0429 C.2       1 <0>        -0.2351
     26 S3          2.6299   -0.4879   -0.0263 S.3       1 <0>         0.2327
     27 C19         3.8746    3.1977   -0.0310 C.2       1 <0>         0.5903
     28 O4          2.9323    3.9679   -0.0194 O.2       1 <0>        -0.5636
     29 N3          5.1349    3.6750   -0.0458 N.am      1 <0>        -0.8474
     30 H1        -10.6521    6.9834   -2.5203 H         1 <0>         0.0932
     31 H2         -9.4033    8.1248   -1.9672 H         1 <0>         0.0891
     32 H3         -8.9720    6.8042   -3.0800 H         1 <0>         0.0960
     33 H4         -8.7862    4.6012    2.2546 H         1 <0>         0.1996
     34 H5         -8.5906    2.3677   -0.8341 H         1 <0>         0.1056
     35 H6         -8.5826    2.3567    0.9458 H         1 <0>         0.1039
     36 H7         -8.2248    0.6015    0.0438 H         1 <0>         0.1363
     37 H8         -7.8494   -1.8243    0.0272 H         1 <0>         0.1347
     38 H9         -5.5623   -2.7298    0.0106 H         1 <0>         0.1363
     39 H10        -3.6297   -1.2165    0.0023 H         1 <0>         0.1460
     40 H11        -1.3916    2.5653    0.9126 H         1 <0>         0.1148
     41 H12        -1.4000    2.5749   -0.8673 H         1 <0>         0.1150
     42 H13         1.1304    2.8682    0.0067 H         1 <0>         0.4365
     43 H14         5.7587    1.1336   -0.0461 H         1 <0>         0.1414
     44 H15         5.0742   -1.3532   -0.0537 H         1 <0>         0.1912
     45 H16         5.8859    3.0612   -0.0551 H         1 <0>         0.4022
     46 H17         5.2910    4.6324   -0.0472 H         1 <0>         0.4056
@<TRIPOS>BOND
     1    1    2 1
     2    1   30 1
     3    1   31 1
     4    1   32 1
     5    2    6 1
     6    2    3 2
     7    3    4 1
     8    4    5 2
     9    4    7 1
    10    5    6 1
    11    5   33 1
    12    7    8 1
    13    7   34 1
    14    7   35 1
    15    8    9 1
    16    9   14 ar
    17    9   10 ar
    18   10   11 ar
    19   10   36 1
    20   11   12 ar
    21   11   37 1
    22   12   13 ar
    23   12   38 1
    24   13   14 ar
    25   13   39 1
    26   14   15 1
    27   15   16 2
    28   15   17 1
    29   17   18 1
    30   18   19 1
    31   18   40 1
    32   18   41 1
    33   19   20 2
    34   19   21 am
    35   21   22 1
    36   21   42 1
    37   22   26 1
    38   22   23 2
    39   23   24 1
    40   23   27 1
    41   24   25 2
    42   24   43 1
    43   25   26 1
    44   25   44 1
    45   27   28 2
    46   27   29 am
    47   29   45 1
    48   29   46 1
