@<TRIPOS>MOLECULE
ZINC13099030
   48    49     0     0     0
SMALL
USER_CHARGES
3-(isopropylsulfamoyl)-N-[4-(methylsulfamoyl)phenyl]benzamide
@<TRIPOS>ATOM
      1 C1         -6.3878    9.4473   10.1677 C.3       1 <0>        -0.1759
      2 C2         -5.9995    8.6179    8.9421 C.3       1 <0>         0.1456
      3 C3         -6.7820    9.1115    7.7235 C.3       1 <0>        -0.1614
      4 N1         -4.5633    8.7607    8.6908 N.pl3     1 <0>        -1.1109
      5 S1         -3.5020    7.6411    9.2930 S.o2      1 <0>         2.6927
      6 O1         -3.8291    7.4684   10.6650 O.2       1 <0>        -0.9472
      7 O2         -2.2068    8.0366    8.8625 O.2       1 <0>        -0.9506
      8 C4         -3.8520    6.1096    8.4952 C.ar      1 <0>        -0.6847
      9 C5         -4.7706    5.2361    9.0503 C.ar      1 <0>         0.0070
     10 C6         -5.0516    4.0318    8.4301 C.ar      1 <0>        -0.1405
     11 C7         -4.4208    3.6966    7.2496 C.ar      1 <0>        -0.0305
     12 C8         -3.4890    4.5705    6.6874 C.ar      1 <0>        -0.1590
     13 C9         -3.2101    5.7842    7.3185 C.ar      1 <0>         0.0453
     14 C10        -2.8048    4.2152    5.4262 C.2       1 <0>         0.5632
     15 O3         -1.9974    4.9805    4.9363 O.2       1 <0>        -0.5001
     16 N2         -3.0763    3.0427    4.8195 N.am      1 <0>        -0.6728
     17 C11        -2.3506    2.6565    3.6881 C.ar      1 <0>         0.2043
     18 C12        -2.9657    1.9177    2.6856 C.ar      1 <0>        -0.1662
     19 C13        -2.2462    1.5374    1.5698 C.ar      1 <0>         0.0041
     20 C14        -0.9149    1.8918    1.4498 C.ar      1 <0>        -0.6939
     21 C15        -0.2981    2.6228    2.4486 C.ar      1 <0>         0.0011
     22 C16        -1.0133    3.0104    3.5647 C.ar      1 <0>        -0.1429
     23 S2         -0.0005    1.4046    0.0246 S.o2      1 <0>         2.6986
     24 O4         -0.6541    0.2595   -0.5054 O.2       1 <0>        -0.9583
     25 O5          1.3686    1.3925    0.4050 O.2       1 <0>        -0.9540
     26 N3         -0.1686    2.6084   -1.1001 N.pl3     1 <0>        -1.1201
     27 C17         0.3827    3.9398   -0.8360 C.3       1 <0>         0.0813
     28 H1         -5.8303    9.0956   11.0358 H         1 <0>         0.0721
     29 H2         -6.1533   10.4961    9.9858 H         1 <0>         0.0638
     30 H3         -7.4564    9.3411   10.3547 H         1 <0>         0.0698
     31 H4         -6.2340    7.5691    9.1240 H         1 <0>         0.0817
     32 H5         -6.5054    8.5206    6.8503 H         1 <0>         0.0619
     33 H6         -7.8506    9.0052    7.9104 H         1 <0>         0.0728
     34 H7         -6.5475   10.1603    7.5416 H         1 <0>         0.0658
     35 H8         -4.2340    9.5110    8.1717 H         1 <0>         0.4215
     36 H9         -5.2708    5.4958    9.9716 H         1 <0>         0.1499
     37 H10        -5.7695    3.3546    8.8685 H         1 <0>         0.1458
     38 H11        -4.6443    2.7582    6.7640 H         1 <0>         0.1360
     39 H12        -2.4931    6.4666    6.8865 H         1 <0>         0.1566
     40 H13        -3.7749    2.4668    5.1675 H         1 <0>         0.4147
     41 H14        -4.0056    1.6412    2.7784 H         1 <0>         0.1379
     42 H15        -2.7238    0.9629    0.7899 H         1 <0>         0.1467
     43 H16         0.7429    2.8942    2.3539 H         1 <0>         0.1465
     44 H17        -0.5321    3.5849    4.3424 H         1 <0>         0.1461
     45 H18        -0.6321    2.4320   -1.9337 H         1 <0>         0.4200
     46 H19        -0.0777    4.3521    0.0619 H         1 <0>         0.0607
     47 H20         1.4602    3.8644   -0.6900 H         1 <0>         0.0706
     48 H21         0.1757    4.5934   -1.6834 H         1 <0>         0.0848
@<TRIPOS>BOND
     1    1    2 1
     2    1   28 1
     3    1   29 1
     4    1   30 1
     5    2    3 1
     6    2    4 1
     7    2   31 1
     8    3   32 1
     9    3   33 1
    10    3   34 1
    11    4    5 1
    12    4   35 1
    13    5    6 2
    14    5    7 2
    15    5    8 1
    16    8   13 ar
    17    8    9 ar
    18    9   10 ar
    19    9   36 1
    20   10   11 ar
    21   10   37 1
    22   11   12 ar
    23   11   38 1
    24   12   13 ar
    25   12   14 1
    26   13   39 1
    27   14   15 2
    28   14   16 am
    29   16   17 1
    30   16   40 1
    31   17   22 ar
    32   17   18 ar
    33   18   19 ar
    34   18   41 1
    35   19   20 ar
    36   19   42 1
    37   20   21 ar
    38   20   23 1
    39   21   22 ar
    40   21   43 1
    41   22   44 1
    42   23   24 2
    43   23   25 2
    44   23   26 1
    45   26   27 1
    46   26   45 1
    47   27   46 1
    48   27   47 1
    49   27   48 1
