@<TRIPOS>MOLECULE
ZINC35058747
   37    37     0     0     0
SMALL
USER_CHARGES

@<TRIPOS>ATOM
      1 C1         -0.0184    1.5028    0.0103 C.3       1 <0>        -0.0694
      2 C2          0.0021   -0.0041    0.0020 C.2       1 <0>         0.0421
      3 C3          0.0080   -0.8184   -1.1395 C.2       1 <0>         0.0676
      4 C4          0.0274   -2.1115   -0.7283 C.2       1 <0>         0.0065
      5 N1          0.0335   -2.1094    0.6313 N.pl3     1 <0>        -0.3587
      6 N2          0.0230   -0.7755    1.0589 N.2       1 <0>        -0.2655
      7 C5          0.0535   -3.2921    1.4957 C.3       1 <0>         0.1278
      8 C6          1.4810   -3.6783    1.7856 C.2       1 <0>         0.4984
      9 O1          2.3920   -3.0296    1.3164 O.2       1 <0>        -0.5164
     10 N3          1.7453   -4.7447    2.5662 N.am      1 <0>        -0.7190
     11 C7          3.1330   -5.1202    2.8481 C.3       1 <0>         0.1034
     12 C8          3.1536   -6.3368    3.7372 C.2       1 <0>         0.5086
     13 O2          2.1116   -6.8406    4.0997 O.2       1 <0>        -0.5351
     14 N4          4.3298   -6.8650    4.1295 N.am      1 <0>        -0.6166
     15 C9          4.3498   -8.0477    4.9938 C.3       1 <0>         0.0828
     16 C10         5.5884   -6.2565    3.6916 C.3       1 <0>         0.0701
     17 C11         0.0399   -3.3285   -1.6171 C.3       1 <0>        -0.0787
     18 N5         -0.0046   -0.3734   -2.4753 N.pl3     1 <0>        -0.8729
     19 H1          1.0042    1.8801    0.0026 H         1 <0>         0.0748
     20 H2         -0.5455    1.8639   -0.8728 H         1 <0>         0.0723
     21 H3         -0.5286    1.8543    0.9071 H         1 <0>         0.0740
     22 H4         -0.4592   -3.0673    2.4309 H         1 <0>         0.1264
     23 H5         -0.4515   -4.1174    0.9938 H         1 <0>         0.1231
     24 H6          1.0167   -5.2636    2.9415 H         1 <0>         0.4136
     25 H7          3.6457   -5.3450    1.9128 H         1 <0>         0.1008
     26 H8          3.6380   -4.2949    3.3500 H         1 <0>         0.1010
     27 H9          4.3592   -8.9473    4.3784 H         1 <0>         0.0590
     28 H10         5.2424   -8.0258    5.6190 H         1 <0>         0.0743
     29 H11         3.4626   -8.0500    5.6271 H         1 <0>         0.0794
     30 H12         5.8961   -5.4992    4.4127 H         1 <0>         0.0644
     31 H13         6.3583   -7.0249    3.6208 H         1 <0>         0.0795
     32 H14         5.4474   -5.7925    2.7154 H         1 <0>         0.0764
     33 H15         1.0704   -3.6082   -1.8356 H         1 <0>         0.0723
     34 H16        -0.4609   -4.1535   -1.1104 H         1 <0>         0.0652
     35 H17        -0.4809   -3.1040   -2.5479 H         1 <0>         0.0774
     36 H18        -0.0183    0.5768   -2.6698 H         1 <0>         0.3969
     37 H19         0.0006   -1.0170   -3.2009 H         1 <0>         0.3942
@<TRIPOS>BOND
     1    1    2 1
     2    1   19 1
     3    1   20 1
     4    1   21 1
     5    2    6 2
     6    2    3 1
     7    3    4 2
     8    3   18 1
     9    4    5 1
    10    4   17 1
    11    5    6 1
    12    5    7 1
    13    7    8 1
    14    7   22 1
    15    7   23 1
    16    8    9 2
    17    8   10 am
    18   10   11 1
    19   10   24 1
    20   11   12 1
    21   11   25 1
    22   11   26 1
    23   12   13 2
    24   12   14 am
    25   14   15 1
    26   14   16 1
    27   15   27 1
    28   15   28 1
    29   15   29 1
    30   16   30 1
    31   16   31 1
    32   16   32 1
    33   17   33 1
    34   17   34 1
    35   17   35 1
    36   18   36 1
    37   18   37 1
