@<TRIPOS>MOLECULE
ZINC30849371
   63    65     0     0     0
SMALL
USER_CHARGES
N-[5-(isopropylsulfamoyl)-2-methoxy-phenyl]-4-methyl-3-morpholinosulfonyl-benzamide
@<TRIPOS>ATOM
      1 C1         -8.2262   -3.7846    4.9854 C.3       1 <0>        -0.1949
      2 C2         -6.9758   -3.0288    4.6163 C.ar      1 <0>         0.0503
      3 C3         -6.6707   -1.8442    5.2634 C.ar      1 <0>        -0.1453
      4 C4         -5.5251   -1.1501    4.9341 C.ar      1 <0>        -0.0257
      5 C5         -4.6788   -1.6391    3.9372 C.ar      1 <0>        -0.1598
      6 C6         -4.9923   -2.8344    3.2886 C.ar      1 <0>         0.0454
      7 C7         -6.1382   -3.5220    3.6319 C.ar      1 <0>        -0.6914
      8 S1         -6.5361   -5.0313    2.8143 S.o2      1 <0>         2.6918
      9 O1         -7.9143   -4.9590    2.4762 O.2       1 <0>        -0.9458
     10 O2         -5.5231   -5.2451    1.8410 O.2       1 <0>        -0.9439
     11 N1         -6.3853   -6.2465    3.9292 N.pl3     1 <0>        -0.9998
     12 C8         -5.0853   -6.8895    4.1777 C.3       1 <0>         0.0831
     13 C9         -4.8317   -6.8871    5.6938 C.3       1 <0>         0.0453
     14 O3         -5.9601   -7.4599    6.3589 O.3       1 <0>        -0.3711
     15 C10        -7.1762   -6.7291    6.1830 C.3       1 <0>         0.0408
     16 C11        -7.5488   -6.7195    4.6961 C.3       1 <0>         0.0679
     17 C12        -3.4528   -0.8971    3.5745 C.2       1 <0>         0.5583
     18 O4         -2.7151   -1.3279    2.7095 O.2       1 <0>        -0.5058
     19 N2         -3.1528    0.2569    4.2027 N.am      1 <0>        -0.6712
     20 C13        -2.0588    1.0213    3.7784 C.ar      1 <0>         0.1082
     21 C14        -1.6008    0.9156    2.4730 C.ar      1 <0>        -0.0006
     22 C15        -0.5213    1.6713    2.0566 C.ar      1 <0>        -0.6963
     23 C16         0.1082    2.5294    2.9395 C.ar      1 <0>        -0.0004
     24 C17        -0.3460    2.6443    4.2402 C.ar      1 <0>        -0.2066
     25 C18        -1.4276    1.8903    4.6658 C.ar      1 <0>         0.1529
     26 O5         -1.8717    1.9978    5.9465 O.3       1 <0>        -0.3155
     27 C19        -1.1761    2.9085    6.8001 C.3       1 <0>         0.0212
     28 S2          0.0590    1.5357    0.3984 S.o2      1 <0>         2.6921
     29 O6         -0.3519    0.2595   -0.0726 O.2       1 <0>        -0.9516
     30 O7          1.4208    1.9412    0.4103 O.2       1 <0>        -0.9540
     31 N3         -0.7614    2.6586   -0.5007 N.pl3     1 <0>        -1.1207
     32 C20        -0.5729    4.0874   -0.2374 C.3       1 <0>         0.1502
     33 C21         0.4924    4.6442   -1.1841 C.3       1 <0>        -0.1720
     34 C22        -1.8932    4.8263   -0.4643 C.3       1 <0>        -0.1615
     35 H1         -8.7605   -3.2436    5.7803 H         1 <0>         0.0906
     36 H2         -7.9554   -4.7888    5.3435 H         1 <0>         0.0959
     37 H3         -8.8754   -3.8731    4.1018 H         1 <0>         0.1165
     38 H4         -7.3286   -1.4647    6.0312 H         1 <0>         0.1430
     39 H5         -5.2856   -0.2282    5.4431 H         1 <0>         0.1357
     40 H6         -4.3393   -3.2205    2.5199 H         1 <0>         0.1600
     41 H7         -5.1088   -7.9222    3.7995 H         1 <0>         0.0902
     42 H8         -4.2935   -6.3276    3.6606 H         1 <0>         0.1014
     43 H9         -3.9318   -7.4794    5.9160 H         1 <0>         0.1118
     44 H10        -4.6846   -5.8532    6.0393 H         1 <0>         0.0570
     45 H11        -7.9793   -7.2091    6.7615 H         1 <0>         0.1125
     46 H12        -7.0376   -5.6963    6.5352 H         1 <0>         0.0596
     47 H13        -8.3997   -6.0436    4.5256 H         1 <0>         0.1127
     48 H14        -7.8158   -7.7350    4.3683 H         1 <0>         0.0911
     49 H15        -3.7673    0.5984    5.0488 H         1 <0>         0.4383
     50 H16        -2.0880    0.2432    1.7824 H         1 <0>         0.1694
     51 H17         0.9544    3.1144    2.6110 H         1 <0>         0.1451
     52 H18         0.1452    3.3187    4.9260 H         1 <0>         0.1440
     53 H19        -1.6350    2.8974    7.7997 H         1 <0>         0.1084
     54 H20        -1.2364    3.9234    6.3802 H         1 <0>         0.0627
     55 H21        -0.1214    2.6057    6.8774 H         1 <0>         0.0630
     56 H22        -1.5629    2.3249   -1.1761 H         1 <0>         0.4414
     57 H23        -0.2497    4.1844    0.8096 H         1 <0>         0.0744
     58 H24         0.6340    5.7170   -0.9864 H         1 <0>         0.0667
     59 H25         0.1674    4.5030   -2.2255 H         1 <0>         0.0643
     60 H26         1.4417    4.1129   -1.0210 H         1 <0>         0.0715
     61 H27        -1.7516    5.8991   -0.2666 H         1 <0>         0.0715
     62 H28        -2.6591    4.4259    0.2163 H         1 <0>         0.0608
     63 H29        -2.2181    4.6851   -1.5057 H         1 <0>         0.0673
@<TRIPOS>BOND
     1    1    2 1
     2    1   35 1
     3    1   36 1
     4    1   37 1
     5    2    7 ar
     6    2    3 ar
     7    3    4 ar
     8    3   38 1
     9    4    5 ar
    10    4   39 1
    11    5    6 ar
    12    5   17 1
    13    6    7 ar
    14    6   40 1
    15    7    8 1
    16    8    9 2
    17    8   10 2
    18    8   11 1
    19   11   16 1
    20   11   12 1
    21   12   13 1
    22   12   41 1
    23   12   42 1
    24   13   14 1
    25   13   43 1
    26   13   44 1
    27   14   15 1
    28   15   16 1
    29   15   45 1
    30   15   46 1
    31   16   47 1
    32   16   48 1
    33   17   18 2
    34   17   19 am
    35   19   20 1
    36   19   49 1
    37   20   25 ar
    38   20   21 ar
    39   21   22 ar
    40   21   50 1
    41   22   23 ar
    42   22   28 1
    43   23   24 ar
    44   23   51 1
    45   24   25 ar
    46   24   52 1
    47   25   26 1
    48   26   27 1
    49   27   53 1
    50   27   54 1
    51   27   55 1
    52   28   29 2
    53   28   30 2
    54   28   31 1
    55   31   32 1
    56   31   56 1
    57   32   33 1
    58   32   34 1
    59   32   57 1
    60   33   58 1
    61   33   59 1
    62   33   60 1
    63   34   61 1
    64   34   62 1
    65   34   63 1
