@<TRIPOS>MOLECULE
ZINC42420272
   39    40     0     0     0
SMALL
USER_CHARGES

@<TRIPOS>ATOM
      1 C1         -0.0309    1.5222    0.0210 C.3       1 <0>        -0.1218
      2 C2          1.4380    1.9931    0.0030 C.3       1 <0>        -0.1199
      3 C3          2.2281    0.7950    0.5854 C.3       1 <0>        -0.1112
      4 C4          1.4874   -0.4264   -0.0133 C.3       1 <0>         0.1150
      5 C5          0.0005   -0.0162    0.0106 C.3       1 <0>        -0.1086
      6 C6          1.7110   -1.6488    0.8392 C.2       1 <0>         0.5012
      7 O1          1.3588   -1.6507    2.0064 O.co2     1 <0>        -0.6917
      8 O2          2.2443   -2.6358    0.3617 O.co2     1 <0>        -0.6743
      9 N1          1.9297   -0.6708   -1.3884 N.am      1 <0>        -0.7089
     10 C7          1.4056   -1.6931   -2.0932 C.2       1 <0>         0.6996
     11 O3          0.6297   -2.4635   -1.5615 O.2       1 <0>        -0.5305
     12 N2          1.7417   -1.8614   -3.3875 N.am      1 <0>        -0.6464
     13 C8          1.0604   -2.9133   -4.1690 C.3       1 <0>         0.1179
     14 C9          0.7137   -2.4150   -5.5838 C.3       1 <0>        -0.1560
     15 C10         0.2385   -0.9809   -5.5100 C.3       1 <0>        -0.0075
     16 N3          1.3714   -0.0853   -5.7325 N.4       1 <0>        -0.4814
     17 C11         2.0979    0.2560   -4.5700 C.3       1 <0>        -0.0570
     18 C12         2.7538   -1.0003   -3.9638 C.3       1 <0>         0.0954
     19 H1         -0.5265    1.8795    0.9237 H         1 <0>         0.0639
     20 H2         -0.5521    1.8910   -0.8624 H         1 <0>         0.0495
     21 H3          1.7591    2.2020   -1.0175 H         1 <0>         0.0508
     22 H4          1.5637    2.8747    0.6315 H         1 <0>         0.0642
     23 H5          3.2659    0.8184    0.2529 H         1 <0>         0.0609
     24 H6          2.1701    0.7865    1.6738 H         1 <0>         0.0923
     25 H7         -0.4799   -0.4055    0.9083 H         1 <0>         0.0808
     26 H8         -0.5055   -0.3940   -0.8778 H         1 <0>         0.0539
     27 H9          2.5998   -0.0970   -1.7916 H         1 <0>         0.3749
     28 H10         1.7143   -3.7819   -4.2459 H         1 <0>         0.0783
     29 H11         0.1427   -3.2018   -3.6565 H         1 <0>         0.1068
     30 H12         1.5995   -2.4723   -6.2165 H         1 <0>         0.0856
     31 H13        -0.0750   -3.0381   -6.0054 H         1 <0>         0.1207
     32 H14        -0.5177   -0.8082   -6.2758 H         1 <0>         0.1348
     33 H15        -0.1891   -0.7893   -4.5258 H         1 <0>         0.1339
     34 H16         2.0027   -0.5264   -6.3843 H         1 <0>         0.4202
     35 H17         2.8710    0.9801   -4.8271 H         1 <0>         0.1445
     36 H18         1.4215    0.6979   -3.8383 H         1 <0>         0.1319
     37 H19         3.4570   -0.6980   -3.1878 H         1 <0>         0.1155
     38 H20         3.2881   -1.5415   -4.7446 H         1 <0>         0.0977
     39 H21         1.0274    0.7645   -6.1538 H         1 <0>         0.4250
@<TRIPOS>BOND
     1    1    5 1
     2    1    2 1
     3    1   19 1
     4    1   20 1
     5    2    3 1
     6    2   21 1
     7    2   22 1
     8    3    4 1
     9    3   23 1
    10    3   24 1
    11    4    5 1
    12    4    6 1
    13    4    9 1
    14    5   25 1
    15    5   26 1
    16    6    7 2
    17    6    8 1
    18    9   10 am
    19    9   27 1
    20   10   11 2
    21   10   12 am
    22   12   18 1
    23   12   13 1
    24   13   14 1
    25   13   28 1
    26   13   29 1
    27   14   15 1
    28   14   30 1
    29   14   31 1
    30   15   16 1
    31   15   32 1
    32   15   33 1
    33   16   17 1
    34   16   34 1
    35   16   39 1
    36   17   18 1
    37   17   35 1
    38   17   36 1
    39   18   37 1
    40   18   38 1
