@<TRIPOS>MOLECULE
ZINC40547915
   68    72     0     0     0
SMALL
USER_CHARGES

@<TRIPOS>ATOM
      1 C1          0.6329    1.5000   -0.0997 C.3       1 <0>        -0.1530
      2 C2          0.5647   -0.0285   -0.1028 C.3       1 <0>        -0.1214
      3 C3          1.2435   -0.5667   -1.3640 C.3       1 <0>        -0.1194
      4 C4          1.1754   -2.0951   -1.3671 C.3       1 <0>         0.0575
      5 O1          1.8094   -2.5978   -2.5450 O.3       1 <0>        -0.3018
      6 C5          1.8360   -3.9482   -2.7034 C.ar      1 <0>         0.1149
      7 C6          1.2594   -4.7708   -1.7490 C.ar      1 <0>        -0.1734
      8 C7          1.2869   -6.1433   -1.9117 C.ar      1 <0>        -0.0913
      9 C8          1.8893   -6.6985   -3.0254 C.ar      1 <0>        -0.0978
     10 C9          2.4668   -5.8835   -3.9812 C.ar      1 <0>        -0.1510
     11 C10         2.4373   -4.5068   -3.8272 C.ar      1 <0>         0.1049
     12 O2          2.9996   -3.7034   -4.7694 O.3       1 <0>        -0.3026
     13 C11         3.5987   -4.3463   -5.8963 C.3       1 <0>         0.0241
     14 C12         1.9169   -8.1954   -3.1977 C.3       1 <0>         0.2550
     15 H1          2.6103   -8.4684   -3.9931 H         1 <0>         0.1125
     16 C13         0.5379   -8.7054   -3.5152 C.2       1 <0>        -0.1664
     17 C14        -0.5540   -8.6871   -4.3897 C.2       1 <0>         0.1176
     18 N1         -1.4672   -9.5010   -3.8975 N.2       1 <0>        -0.2193
     19 N2         -1.0602  -10.0311   -2.7995 N.pl3     1 <0>        -0.3326
     20 H2         -1.5670  -10.6613   -2.2638 H         1 <0>         0.4540
     21 C15         0.1922   -9.5758   -2.4994 C.2       1 <0>        -0.0659
     22 C16         1.3024   -9.6404   -1.5424 C.2       1 <0>         0.5989
     23 O3          1.3108  -10.3197   -0.5335 O.2       1 <0>        -0.5070
     24 N3          2.3114   -8.8418   -1.9393 N.am      1 <0>        -0.5901
     25 C17         3.5830   -8.6498   -1.2376 C.3       1 <0>         0.1780
     26 H3          4.1963   -7.9371   -1.7889 H         1 <0>         0.1231
     27 C18         3.3099   -8.1039    0.1737 C.3       1 <0>        -0.1522
     28 C19         4.6265   -8.2062    0.9957 C.3       1 <0>        -0.5695
     29 S1          5.2405   -9.8538    0.4450 S.o2      1 <0>         2.3750
     30 O4          6.6320   -9.7611    0.1725 O.2       1 <0>        -0.9321
     31 O5          4.7688  -10.8474    1.3448 O.2       1 <0>        -0.9220
     32 C20         4.3274  -10.0035   -1.1435 C.3       1 <0>        -0.6063
     33 C21        -0.6643   -7.8966   -5.6409 C.ar      1 <0>        -0.0320
     34 C22         0.3895   -7.8771   -6.5510 C.ar      1 <0>        -0.0820
     35 C23         0.2823   -7.1404   -7.7133 C.ar      1 <0>        -0.0936
     36 C24        -0.8694   -6.4204   -7.9781 C.ar      1 <0>        -0.0937
     37 C25        -1.9208   -6.4327   -7.0814 C.ar      1 <0>        -0.1426
     38 C26        -1.8286   -7.1732   -5.9136 C.ar      1 <0>         0.1292
     39 O6         -2.8641   -7.1913   -5.0344 O.3       1 <0>        -0.4855
     40 C27         1.4236   -7.1196   -8.6972 C.3       1 <0>        -0.1151
     41 H4          1.6756    1.8172   -0.1146 H         1 <0>         0.0565
     42 H5          0.1223    1.8883   -0.9810 H         1 <0>         0.0564
     43 H6          0.1493    1.8834    0.7988 H         1 <0>         0.0577
     44 H7          1.0753   -0.4167    0.7785 H         1 <0>         0.0647
     45 H8         -0.4780   -0.3457   -0.0879 H         1 <0>         0.0645
     46 H9          0.7329   -0.1784   -2.2453 H         1 <0>         0.0748
     47 H10         2.2862   -0.2494   -1.3789 H         1 <0>         0.0750
     48 H11         1.6860   -2.4834   -0.4858 H         1 <0>         0.0620
     49 H12         0.1327   -2.4124   -1.3521 H         1 <0>         0.0616
     50 H13         0.7888   -4.3397   -0.8777 H         1 <0>         0.1362
     51 H14         0.8372   -6.7833   -1.1671 H         1 <0>         0.1213
     52 H15         2.9371   -6.3198   -4.8501 H         1 <0>         0.1387
     53 H16         2.8457   -4.9326   -6.4229 H         1 <0>         0.0573
     54 H17         4.0085   -3.5928   -6.5690 H         1 <0>         0.1020
     55 H18         4.3990   -5.0037   -5.5565 H         1 <0>         0.0554
     56 H19         2.9952   -7.0622    0.1110 H         1 <0>         0.1085
     57 H20         2.5299   -8.6956    0.6528 H         1 <0>         0.1053
     58 H21         5.3240   -7.4143    0.7230 H         1 <0>         0.1436
     59 H22         4.4241   -8.1988    2.0667 H         1 <0>         0.1477
     60 H23         3.6199  -10.8318   -1.1063 H         1 <0>         0.1512
     61 H24         5.0200  -10.1224   -1.9768 H         1 <0>         0.1499
     62 H25         1.2900   -8.4375   -6.3474 H         1 <0>         0.1268
     63 H26        -0.9467   -5.8461   -8.8894 H         1 <0>         0.1290
     64 H27        -2.8171   -5.8686   -7.2931 H         1 <0>         0.1326
     65 H28        -2.8659   -6.4500   -4.4134 H         1 <0>         0.3874
     66 H29         1.2995   -7.9306   -9.4147 H         1 <0>         0.0733
     67 H30         1.4313   -6.1658   -9.2246 H         1 <0>         0.0693
     68 H31         2.3655   -7.2474   -8.1637 H         1 <0>         0.0664
@<TRIPOS>BOND
     1    1    2 1
     2    1   41 1
     3    1   42 1
     4    1   43 1
     5    2    3 1
     6    2   44 1
     7    2   45 1
     8    3    4 1
     9    3   46 1
    10    3   47 1
    11    4    5 1
    12    4   48 1
    13    4   49 1
    14    5    6 1
    15    6   11 ar
    16    6    7 ar
    17    7    8 ar
    18    7   50 1
    19    8    9 ar
    20    8   51 1
    21    9   10 ar
    22    9   14 1
    23   10   11 ar
    24   10   52 1
    25   11   12 1
    26   12   13 1
    27   13   53 1
    28   13   54 1
    29   13   55 1
    30   14   15 1
    31   14   24 1
    32   14   16 1
    33   16   21 2
    34   16   17 1
    35   17   18 2
    36   17   33 1
    37   18   19 1
    38   19   20 1
    39   19   21 1
    40   21   22 1
    41   22   23 2
    42   22   24 am
    43   24   25 1
    44   25   26 1
    45   25   32 1
    46   25   27 1
    47   27   28 1
    48   27   56 1
    49   27   57 1
    50   28   29 1
    51   28   58 1
    52   28   59 1
    53   29   30 2
    54   29   31 2
    55   29   32 1
    56   32   60 1
    57   32   61 1
    58   33   38 ar
    59   33   34 ar
    60   34   35 ar
    61   34   62 1
    62   35   36 ar
    63   35   40 1
    64   36   37 ar
    65   36   63 1
    66   37   38 ar
    67   37   64 1
    68   38   39 1
    69   39   65 1
    70   40   66 1
    71   40   67 1
    72   40   68 1
