@<TRIPOS>MOLECULE
ZINC50771187
   52    53     0     0     0
SMALL
USER_CHARGES

@<TRIPOS>ATOM
      1 C1         -0.3098    2.2237    0.0074 C.3       1 <0>        -0.1087
      2 C2         -0.2309    0.7188    0.0137 C.ar      1 <0>        -0.1428
      3 C3         -0.2515    0.0124   -1.1715 C.ar      1 <0>         0.1070
      4 N1         -0.1823   -1.3052   -1.1745 N.ar      1 <0>        -0.4627
      5 C4         -0.0912   -2.0006   -0.0565 C.ar      1 <0>         0.1075
      6 C5         -0.0646   -1.3682    1.1692 C.ar      1 <0>        -0.1296
      7 C6         -0.1302    0.0224    1.2153 C.ar      1 <0>         0.1334
      8 O1         -0.1017    0.6816    2.4015 O.3       1 <0>        -0.3280
      9 C7         -1.3578    0.9298    3.0361 C.3       1 <0>         0.0331
     10 C8          0.0396   -2.1705    2.4406 C.3       1 <0>        -0.1136
     11 C9         -0.0156   -3.5044   -0.1196 C.3       1 <0>         0.1718
     12 N2          1.3866   -3.9197   -0.2076 N.am      1 <0>        -0.7183
     13 C10         1.6987   -5.2290   -0.2752 C.2       1 <0>         0.5647
     14 O2          0.8167   -6.0654   -0.2631 O.2       1 <0>        -0.5231
     15 C11         3.1140   -5.6482   -0.3640 C.ar      1 <0>        -0.0944
     16 C12         4.1277   -4.6899   -0.3721 C.ar      1 <0>        -0.1271
     17 C13         5.4538   -5.0866   -0.4550 C.ar      1 <0>         0.1594
     18 C14         5.7732   -6.4357   -0.5303 C.ar      1 <0>        -0.1201
     19 C15         4.7668   -7.3921   -0.5224 C.ar      1 <0>         0.1605
     20 C16         3.4388   -7.0030   -0.4340 C.ar      1 <0>        -0.0723
     21 N3          5.0934   -8.7509   -0.5990 N.am      1 <0>        -0.6748
     22 C17         4.2865   -9.6015   -1.2638 C.2       1 <0>         0.5093
     23 O3          3.3302   -9.1762   -1.8767 O.2       1 <0>        -0.5178
     24 C18         4.5724  -11.0810   -1.2455 C.3       1 <0>        -0.1697
     25 N4          6.4715   -4.1259   -0.4632 N.am      1 <0>        -0.6742
     26 C19         7.6506   -4.3881    0.1346 C.2       1 <0>         0.5121
     27 O4          7.7971   -5.4156    0.7622 O.2       1 <0>        -0.5250
     28 C20         8.7871   -3.4047    0.0233 C.3       1 <0>        -0.1708
     29 H1          0.6959    2.6401   -0.0489 H         1 <0>         0.0789
     30 H2         -0.8885    2.5536   -0.8554 H         1 <0>         0.0736
     31 H3         -0.7941    2.5660    0.9220 H         1 <0>         0.0698
     32 H4         -0.3256    0.5447   -2.1083 H         1 <0>         0.1638
     33 H5         -1.9831    1.5349    2.3798 H         1 <0>         0.0507
     34 H6         -1.8556   -0.0182    3.2398 H         1 <0>         0.0510
     35 H7         -1.1926    1.4621    3.9729 H         1 <0>         0.1013
     36 H8          1.0898   -2.3100    2.6971 H         1 <0>         0.0795
     37 H9         -0.4641   -1.6390    3.2480 H         1 <0>         0.0713
     38 H10        -0.4314   -3.1428    2.2963 H         1 <0>         0.0769
     39 H11        -0.4645   -3.9288    0.7784 H         1 <0>         0.0913
     40 H12        -0.5552   -3.8588   -0.9979 H         1 <0>         0.0912
     41 H13         2.0904   -3.2522   -0.2172 H         1 <0>         0.4002
     42 H14         3.8799   -3.6403   -0.3142 H         1 <0>         0.1296
     43 H15         6.8068   -6.7417   -0.5954 H         1 <0>         0.1422
     44 H16         2.6568   -7.7477   -0.4234 H         1 <0>         0.1503
     45 H17         5.9004   -9.0805   -0.1736 H         1 <0>         0.4152
     46 H18         5.4644  -11.2713   -0.6486 H         1 <0>         0.0795
     47 H19         3.7244  -11.6096   -0.8103 H         1 <0>         0.1018
     48 H20         4.7354  -11.4322   -2.2644 H         1 <0>         0.1001
     49 H21         6.3282   -3.2713   -0.8991 H         1 <0>         0.4146
     50 H22         8.4703   -2.5495   -0.5737 H         1 <0>         0.0798
     51 H23         9.0737   -3.0665    1.0190 H         1 <0>         0.1005
     52 H24         9.6391   -3.8868   -0.4560 H         1 <0>         0.1012
@<TRIPOS>BOND
     1    1    2 1
     2    1   29 1
     3    1   30 1
     4    1   31 1
     5    2    7 ar
     6    2    3 ar
     7    3    4 ar
     8    3   32 1
     9    4    5 ar
    10    5    6 ar
    11    5   11 1
    12    6    7 ar
    13    6   10 1
    14    7    8 1
    15    8    9 1
    16    9   33 1
    17    9   34 1
    18    9   35 1
    19   10   36 1
    20   10   37 1
    21   10   38 1
    22   11   12 1
    23   11   39 1
    24   11   40 1
    25   12   13 am
    26   12   41 1
    27   13   14 2
    28   13   15 1
    29   15   20 ar
    30   15   16 ar
    31   16   17 ar
    32   16   42 1
    33   17   18 ar
    34   17   25 1
    35   18   19 ar
    36   18   43 1
    37   19   20 ar
    38   19   21 1
    39   20   44 1
    40   21   22 am
    41   21   45 1
    42   22   23 2
    43   22   24 1
    44   24   46 1
    45   24   47 1
    46   24   48 1
    47   25   26 am
    48   25   49 1
    49   26   27 2
    50   26   28 1
    51   28   50 1
    52   28   51 1
    53   28   52 1
