@<TRIPOS>MOLECULE
ZINC63271885
   45    48     0     0     0
SMALL
USER_CHARGES

@<TRIPOS>ATOM
      1 C1         -0.0169    1.3986    0.0097 C.ar      1 <0>         0.0533
      2 C2          1.1089    2.1429    0.0030 C.ar      1 <0>        -0.1881
      3 C3          2.3855    1.5158   -0.0130 C.ar      1 <0>         0.3296
      4 N1          3.6000    2.0090   -0.0224 N.pl3     1 <0>        -0.5767
      5 C4          4.5566    0.8968   -0.0378 C.3       1 <0>         0.0592
      6 C5          3.7244   -0.3660   -0.0363 C.2       1 <0>         0.0799
      7 C6          2.4332    0.0361   -0.0214 C.ar      1 <0>        -0.1618
      8 C7          1.1630   -0.6994   -0.0127 C.ar      1 <0>        -0.0075
      9 C8          0.0021   -0.0041    0.0020 C.ar      1 <0>        -0.0742
     10 Cl1        -1.5024   -0.8703    0.0123 Cl        1 <0>        -0.0127
     11 C9          4.2312   -1.7852   -0.0489 C.3       1 <0>        -0.1075
     12 C10         4.5075   -2.2153   -1.4909 C.3       1 <0>         0.1251
     13 N2          5.0002   -3.5949   -1.5032 N.am      1 <0>        -0.7361
     14 C11         5.3116   -4.1889   -2.6722 C.2       1 <0>         0.5253
     15 O1          5.1839   -3.5814   -3.7141 O.2       1 <0>        -0.5194
     16 C12         5.8185   -5.6081   -2.6848 C.3       1 <0>        -0.1288
     17 C13         6.0948   -6.0382   -4.1269 C.3       1 <0>        -0.0864
     18 S1          6.7049   -7.7464   -4.1420 S.3       1 <0>        -0.0418
     19 C14         6.9724   -8.0884   -5.8497 C.ar      1 <0>         0.2180
     20 C15         7.4461   -9.3362   -6.2623 C.ar      1 <0>        -0.0540
     21 N3          7.8024  -10.5073   -5.6272 N.pl3     1 <0>        -0.5704
     22 C16         8.1910  -11.3785   -6.5854 C.2       1 <0>         0.3218
     23 N4          8.0973  -10.8224   -7.7612 N.2       1 <0>        -0.4810
     24 C17         7.6436   -9.5613   -7.6339 C.ar      1 <0>         0.3258
     25 N5          7.3706   -8.5726   -8.4924 N.ar      1 <0>        -0.4672
     26 C18         6.9259   -7.4129   -8.0580 C.ar      1 <0>         0.3824
     27 N6          6.7224   -7.1655   -6.7756 N.ar      1 <0>        -0.5041
     28 H1          7.7786  -10.6747   -4.6721 H         1 <0>         0.4356
     29 Cl2         6.5874   -6.1625   -9.2137 Cl        1 <0>         0.0429
     30 H2         -0.9715    1.9036    0.0262 H         1 <0>         0.1712
     31 H3          1.0401    3.2207    0.0094 H         1 <0>         0.1715
     32 H4          5.1701    0.9413   -0.9377 H         1 <0>         0.1797
     33 H5          5.1878    0.9318    0.8501 H         1 <0>         0.1798
     34 H6          1.1550   -1.7793   -0.0180 H         1 <0>         0.1704
     35 H7          5.1518   -1.8474    0.5315 H         1 <0>         0.1222
     36 H8          3.4805   -2.4430    0.3890 H         1 <0>         0.1181
     37 H9          3.5870   -2.1531   -2.0713 H         1 <0>         0.0805
     38 H10         5.2582   -1.5575   -1.9288 H         1 <0>         0.0801
     39 H11         5.1024   -4.0808   -0.6699 H         1 <0>         0.4081
     40 H12         6.7390   -5.6703   -2.1044 H         1 <0>         0.1102
     41 H13         5.0678   -6.2659   -2.2469 H         1 <0>         0.1102
     42 H14         5.1742   -5.9760   -4.7072 H         1 <0>         0.1086
     43 H15         6.8455   -5.3804   -4.5647 H         1 <0>         0.1086
     44 H16         8.5296  -12.3878   -6.4034 H         1 <0>         0.2407
     45 H17         3.8281    2.9518   -0.0197 H         1 <0>         0.4588
@<TRIPOS>BOND
     1    1    9 ar
     2    1    2 ar
     3    1   30 1
     4    2    3 ar
     5    2   31 1
     6    3    7 ar
     7    3    4 2
     8    4    5 1
     9    4   45 1
    10    5    6 1
    11    5   32 1
    12    5   33 1
    13    6    7 2
    14    6   11 1
    15    7    8 ar
    16    8    9 ar
    17    8   34 1
    18    9   10 1
    19   11   12 1
    20   11   35 1
    21   11   36 1
    22   12   13 1
    23   12   37 1
    24   12   38 1
    25   13   14 am
    26   13   39 1
    27   14   15 2
    28   14   16 1
    29   16   17 1
    30   16   40 1
    31   16   41 1
    32   17   18 1
    33   17   42 1
    34   17   43 1
    35   18   19 1
    36   19   27 ar
    37   19   20 ar
    38   20   24 ar
    39   20   21 1
    40   21   22 1
    41   21   28 1
    42   22   44 1
    43   22   23 2
    44   23   24 1
    45   24   25 ar
    46   25   26 ar
    47   26   29 1
    48   26   27 ar
