@<TRIPOS>MOLECULE
ZINC67540674
   49    50     0     0     0
SMALL
USER_CHARGES

@<TRIPOS>ATOM
      1 C1         -0.0111    1.5254    0.0229 C.3       1 <0>        -0.1227
      2 C2          1.4254    2.0521    0.0158 C.3       1 <0>        -0.1164
      3 C3          2.1423    1.5614   -1.2435 C.3       1 <0>        -0.1264
      4 C4          2.1600    0.0315   -1.2570 C.3       1 <0>         0.1637
      5 C5          0.7235   -0.4951   -1.2500 C.3       1 <0>        -0.1291
      6 C6          0.0065   -0.0044    0.0094 C.3       1 <0>        -0.1180
      7 N1          2.8465   -0.4384   -2.4629 N.am      1 <0>        -0.7434
      8 C7          3.4291   -1.6536   -2.4763 C.2       1 <0>         0.7050
      9 O1          3.3849   -2.3600   -1.4877 O.2       1 <0>        -0.5866
     10 N2          4.0606   -2.0859   -3.5857 N.am      1 <0>        -0.7442
     11 C8          4.6939   -3.4069   -3.6004 C.3       1 <0>         0.1655
     12 C9          6.1036   -3.3030   -3.0139 C.3       1 <0>        -0.1455
     13 C10         6.7497   -4.6919   -2.9989 C.3       1 <0>         0.1316
     14 N3          6.7008   -5.2510   -4.3567 N.am      1 <0>        -0.6253
     15 C11         5.4062   -5.3133   -5.0488 C.3       1 <0>         0.1147
     16 C12         4.7752   -3.9174   -5.0408 C.3       1 <0>        -0.1432
     17 C13         7.8221   -5.6977   -4.9563 C.2       1 <0>         0.7170
     18 O2          8.9004   -5.5540   -4.4132 O.2       1 <0>        -0.5781
     19 N4          7.7482   -6.3038   -6.1578 N.am      1 <0>        -0.7475
     20 C14         8.9502   -6.8863   -6.7595 C.3       1 <0>         0.0968
     21 C15         8.5940   -7.5070   -8.1118 C.3       1 <0>         0.4484
     22 F1          8.0811   -6.5182   -8.9582 F         1 <0>        -0.1784
     23 F2          9.7418   -8.0633   -8.6865 F         1 <0>        -0.1701
     24 F3          7.6333   -8.5071   -7.9274 F         1 <0>        -0.1779
     25 H1         -0.5219    1.8750    0.9201 H         1 <0>         0.0645
     26 H2         -0.5362    1.8905   -0.8598 H         1 <0>         0.0623
     27 H3          1.4128    3.1420    0.0254 H         1 <0>         0.0677
     28 H4          1.9505    1.6870    0.8985 H         1 <0>         0.0659
     29 H5          1.6172    1.9264   -2.1262 H         1 <0>         0.0672
     30 H6          3.1657    1.9366   -1.2485 H         1 <0>         0.0682
     31 H7          2.6851   -0.3336   -0.3744 H         1 <0>         0.0885
     32 H8          0.1983   -0.1301   -2.1326 H         1 <0>         0.0615
     33 H9          0.7360   -1.5850   -1.2596 H         1 <0>         0.0674
     34 H10         0.5317   -0.3695    0.8920 H         1 <0>         0.0649
     35 H11        -1.0169   -0.3796    0.0144 H         1 <0>         0.0649
     36 H12         2.8817    0.1252   -3.2516 H         1 <0>         0.3945
     37 H13         4.0959   -1.5224   -4.3744 H         1 <0>         0.3953
     38 H14         4.1022   -4.0999   -3.0023 H         1 <0>         0.0927
     39 H15         6.7035   -2.6293   -3.6257 H         1 <0>         0.0691
     40 H16         6.0467   -2.9173   -1.9960 H         1 <0>         0.0847
     41 H17         7.7872   -4.6089   -2.6751 H         1 <0>         0.1001
     42 H18         6.2027   -5.3421   -2.3161 H         1 <0>         0.0737
     43 H19         5.5572   -5.6401   -6.0776 H         1 <0>         0.0810
     44 H20         4.7496   -6.0141   -4.5332 H         1 <0>         0.0802
     45 H21         3.7727   -3.9689   -5.4657 H         1 <0>         0.0862
     46 H22         5.3876   -3.2379   -5.6336 H         1 <0>         0.0753
     47 H23         6.8992   -6.3544   -6.6241 H         1 <0>         0.4026
     48 H24         9.6987   -6.1071   -6.9033 H         1 <0>         0.1163
     49 H25         9.3498   -7.6568   -6.1001 H         1 <0>         0.1156
@<TRIPOS>BOND
     1    1    6 1
     2    1    2 1
     3    1   25 1
     4    1   26 1
     5    2    3 1
     6    2   27 1
     7    2   28 1
     8    3    4 1
     9    3   29 1
    10    3   30 1
    11    4    5 1
    12    4    7 1
    13    4   31 1
    14    5    6 1
    15    5   32 1
    16    5   33 1
    17    6   34 1
    18    6   35 1
    19    7    8 am
    20    7   36 1
    21    8    9 2
    22    8   10 am
    23   10   11 1
    24   10   37 1
    25   11   16 1
    26   11   12 1
    27   11   38 1
    28   12   13 1
    29   12   39 1
    30   12   40 1
    31   13   14 1
    32   13   41 1
    33   13   42 1
    34   14   15 1
    35   14   17 am
    36   15   16 1
    37   15   43 1
    38   15   44 1
    39   16   45 1
    40   16   46 1
    41   17   18 2
    42   17   19 am
    43   19   20 1
    44   19   47 1
    45   20   21 1
    46   20   48 1
    47   20   49 1
    48   21   22 1
    49   21   23 1
    50   21   24 1
