@<TRIPOS>MOLECULE
CHEMBL196507
   41    44     0     0     0
SMALL
USER_CHARGES

@<TRIPOS>ATOM
      1 C1          0.8674    1.3909   -0.1193 C.ar      1 <0>        -0.0875
      2 C2          2.1264    1.9668   -0.2320 C.ar      1 <0>        -0.1115
      3 C3          3.2540    1.1805   -0.3213 C.ar      1 <0>        -0.0547
      4 C4          3.1241   -0.2075   -0.2973 C.ar      1 <0>        -0.1262
      5 C5          1.8411   -0.7897   -0.1820 C.ar      1 <0>        -0.0592
      6 C6          0.7163    0.0327   -0.0937 C.ar      1 <0>        -0.0979
      7 C7          1.7347   -2.2486   -0.1598 C.2       1 <0>         0.1375
      8 N1          2.8057   -2.9800   -0.2448 N.2       1 <0>        -0.2165
      9 N2          4.0843   -2.4336   -0.3593 N.am      1 <0>        -0.5340
     10 H1          4.8482   -3.0283   -0.4193 H         1 <0>         0.4366
     11 C8          4.2863   -1.0997   -0.3891 C.2       1 <0>         0.5279
     12 O1          5.4117   -0.6446   -0.4901 O.2       1 <0>        -0.5221
     13 C9          0.3829   -2.9036   -0.0379 C.3       1 <0>        -0.0172
     14 C10         0.5486   -4.4015   -0.0388 C.ar      1 <0>        -0.0575
     15 C11         0.5278   -5.0981   -1.2334 C.ar      1 <0>        -0.1175
     16 C12         0.6799   -6.4723   -1.2385 C.ar      1 <0>        -0.0973
     17 C13         0.8532   -7.1539   -0.0496 C.ar      1 <0>        -0.1187
     18 C14         0.8745   -6.4574    1.1515 C.ar      1 <0>         0.1471
     19 C15         0.7267   -5.0764    1.1527 C.ar      1 <0>        -0.1295
     20 N3          1.0494   -7.1449    2.3576 N.am      1 <0>        -0.6716
     21 C16         1.8216   -8.2488    2.3982 C.2       1 <0>         0.5434
     22 O2          2.4411   -8.5920    1.4136 O.2       1 <0>        -0.5166
     23 C17         1.9152   -9.0566    3.6669 C.3       1 <0>        -0.1995
     24 C18         3.2513   -9.0489    4.4123 C.3       1 <0>        -0.1512
     25 C19         2.8083  -10.2988    3.6492 C.3       1 <0>        -0.1443
     26 H2         -0.0037    2.0251   -0.0463 H         1 <0>         0.1365
     27 H3          2.2222    3.0424   -0.2502 H         1 <0>         0.1373
     28 H4          4.2298    1.6350   -0.4095 H         1 <0>         0.1433
     29 H5         -0.2684   -0.4022   -0.0060 H         1 <0>         0.1419
     30 H6         -0.0898   -2.5909    0.8931 H         1 <0>         0.1055
     31 H7         -0.2420   -2.6067   -0.8802 H         1 <0>         0.1075
     32 H8          0.3921   -4.5675   -2.1642 H         1 <0>         0.1217
     33 H9          0.6628   -7.0134   -2.1730 H         1 <0>         0.1258
     34 H10         0.9716   -8.2273   -0.0541 H         1 <0>         0.1322
     35 H11         0.7470   -4.5314    2.0849 H         1 <0>         0.1229
     36 H12         0.6149   -6.8270    3.1645 H         1 <0>         0.4117
     37 H13         1.0051   -9.0996    4.2651 H         1 <0>         0.1279
     38 H14         4.0626   -8.4595    3.9851 H         1 <0>         0.1004
     39 H15         3.2204   -9.0867    5.5012 H         1 <0>         0.1075
     40 H16         2.4859  -11.1589    4.2361 H         1 <0>         0.1065
     41 H17         3.3281  -10.5317    2.7199 H         1 <0>         0.1094
@<TRIPOS>BOND
     1    1    6 ar
     2    1    2 ar
     3    1   26 1
     4    2    3 ar
     5    2   27 1
     6    3    4 ar
     7    3   28 1
     8    4   11 1
     9    4    5 ar
    10    5    6 ar
    11    5    7 1
    12    6   29 1
    13    7    8 2
    14    7   13 1
    15    8    9 1
    16    9   10 1
    17    9   11 am
    18   11   12 2
    19   13   14 1
    20   13   30 1
    21   13   31 1
    22   14   19 ar
    23   14   15 ar
    24   15   16 ar
    25   15   32 1
    26   16   17 ar
    27   16   33 1
    28   17   18 ar
    29   17   34 1
    30   18   19 ar
    31   18   20 1
    32   19   35 1
    33   20   21 am
    34   20   36 1
    35   21   22 2
    36   21   23 1
    37   23   25 1
    38   23   24 1
    39   23   37 1
    40   24   25 1
    41   24   38 1
    42   24   39 1
    43   25   40 1
    44   25   41 1
