@<TRIPOS>MOLECULE
CHEMBL604878
   49    52     0     0     0
SMALL
USER_CHARGES

@<TRIPOS>ATOM
      1 C1         -0.0169    1.3956   -0.1221 C.ar      1 <0>        -0.1663
      2 C2          1.1185    2.1338   -0.2295 C.ar      1 <0>        -0.0069
      3 C3          2.3827    1.5196   -0.1434 C.ar      1 <0>        -0.2037
      4 C4          3.6918    1.9651   -0.2095 C.2       1 <0>         0.0846
      5 N1          4.4955    0.9016   -0.0581 N.pl3     1 <0>        -0.2834
      6 N2          3.7276   -0.2567    0.1094 N.2       1 <0>        -0.2649
      7 C5          2.4525    0.0640    0.0655 C.ar      1 <0>         0.1451
      8 C6          1.1931   -0.6790    0.1738 C.ar      1 <0>        -0.1265
      9 C7          0.0004    0.0208    0.0752 C.ar      1 <0>        -0.0181
     10 C8          1.1951   -2.1358    0.3824 C.2       1 <0>         0.5630
     11 O1          2.2494   -2.7367    0.4669 O.2       1 <0>        -0.5268
     12 N3          0.0288   -2.8042    0.4799 N.am      1 <0>        -0.8525
     13 C9          5.8958    0.9439   -0.0670 C.ar      1 <0>         0.1506
     14 C10         6.5530    2.1559   -0.2366 C.ar      1 <0>        -0.1149
     15 C11         7.9323    2.1976   -0.2453 C.ar      1 <0>        -0.0891
     16 C12         8.6636    1.0277   -0.0839 C.ar      1 <0>         0.1179
     17 C13         8.0064   -0.1843    0.0862 C.ar      1 <0>        -0.1064
     18 C14         6.6271   -0.2253    0.0997 C.ar      1 <0>        -0.0842
     19 N4         10.0625    1.0699   -0.0932 N.am      1 <0>        -0.6441
     20 C15        10.7075    2.1441    0.4033 C.2       1 <0>         0.5007
     21 O2         10.0815    3.0309    0.9444 O.2       1 <0>        -0.5096
     22 C16        12.2067    2.2433    0.2862 C.3       1 <0>        -0.0245
     23 N5         12.6638    3.4975    0.8994 N.4       1 <0>        -0.3821
     24 C17        12.4719    3.4476    2.3714 C.3       1 <0>        -0.0092
     25 C18        13.4686    4.5121    2.8951 C.3       1 <0>        -0.1440
     26 C19        14.6817    4.3435    1.9517 C.3       1 <0>        -0.1448
     27 C20        14.1175    3.6685    0.6877 C.3       1 <0>        -0.0081
     28 H1         -0.9706    1.8981   -0.1883 H         1 <0>         0.1356
     29 H2          1.0509    3.2008   -0.3826 H         1 <0>         0.1333
     30 H3          4.0095    2.9867   -0.3570 H         1 <0>         0.1921
     31 H4         -0.9346   -0.5141    0.1531 H         1 <0>         0.1373
     32 H5         -0.8119   -2.3250    0.4126 H         1 <0>         0.4000
     33 H6          0.0301   -3.7644    0.6174 H         1 <0>         0.4077
     34 H7          5.9844    3.0655   -0.3621 H         1 <0>         0.1418
     35 H8          8.4432    3.1398   -0.3780 H         1 <0>         0.1444
     36 H9          8.5749   -1.0939    0.2114 H         1 <0>         0.1431
     37 H10         6.1161   -1.1670    0.2358 H         1 <0>         0.1548
     38 H11        10.5677    0.3261   -0.4569 H         1 <0>         0.4223
     39 H12        12.6679    1.3991    0.7987 H         1 <0>         0.1620
     40 H13        12.4907    2.2288   -0.7661 H         1 <0>         0.1636
     41 H14        11.4489    3.7157    2.6354 H         1 <0>         0.1458
     42 H15        12.7243    2.4606    2.7590 H         1 <0>         0.1311
     43 H16        13.0464    5.5130    2.8054 H         1 <0>         0.0995
     44 H17        13.7503    4.3021    3.9269 H         1 <0>         0.1179
     45 H18        15.1061    5.3164    1.7036 H         1 <0>         0.1071
     46 H19        15.4361    3.7079    2.4153 H         1 <0>         0.1055
     47 H20        14.5888    2.6962    0.5443 H         1 <0>         0.1334
     48 H21        14.2943    4.3017   -0.1817 H         1 <0>         0.1357
     49 H22        12.1609    4.2800    0.5083 H         1 <0>         0.4342
@<TRIPOS>BOND
     1    1    9 ar
     2    1    2 ar
     3    1   28 1
     4    2    3 ar
     5    2   29 1
     6    3    7 ar
     7    3    4 2
     8    4    5 1
     9    4   30 1
    10    5    6 1
    11    5   13 1
    12    6    7 2
    13    7    8 ar
    14    8    9 ar
    15    8   10 1
    16    9   31 1
    17   10   11 2
    18   10   12 am
    19   12   32 1
    20   12   33 1
    21   13   18 ar
    22   13   14 ar
    23   14   15 ar
    24   14   34 1
    25   15   16 ar
    26   15   35 1
    27   16   17 ar
    28   16   19 1
    29   17   18 ar
    30   17   36 1
    31   18   37 1
    32   19   20 am
    33   19   38 1
    34   20   21 2
    35   20   22 1
    36   22   23 1
    37   22   39 1
    38   22   40 1
    39   23   27 1
    40   23   24 1
    41   23   49 1
    42   24   25 1
    43   24   41 1
    44   24   42 1
    45   25   26 1
    46   25   43 1
    47   25   44 1
    48   26   27 1
    49   26   45 1
    50   26   46 1
    51   27   47 1
    52   27   48 1
