@<TRIPOS>MOLECULE
CHEMBL525167
   40    43     0     0     0
SMALL
USER_CHARGES

@<TRIPOS>ATOM
      1 C1          0.1729    1.4567    0.0003 C.3       1 <0>         0.0960
      2 N1          0.0832   -0.0055   -0.0018 N.pl3     1 <0>        -0.3684
      3 C2         -0.0812   -0.7877   -1.0858 C.2       1 <0>         0.3146
      4 C3         -0.1043   -2.0883   -0.6605 C.2       1 <0>        -0.2566
      5 C4          0.0386   -2.0930    0.7263 C.2       1 <0>         0.1501
      6 N2          0.1595   -0.8398    1.1257 N.2       1 <0>        -0.2743
      7 C5          0.0576   -3.2938    1.5986 C.ar      1 <0>        -0.0152
      8 C6          0.7712   -4.4266    1.2132 C.ar      1 <0>        -0.0954
      9 C7          0.7858   -5.5403    2.0284 C.ar      1 <0>        -0.1189
     10 C8          0.0938   -5.5330    3.2260 C.ar      1 <0>        -0.1105
     11 C9         -0.6162   -4.4110    3.6134 C.ar      1 <0>        -0.1197
     12 C10        -0.6333   -3.2900    2.8084 C.ar      1 <0>        -0.0903
     13 C11        -0.2524   -3.2408   -1.6277 C.3       1 <0>         0.0062
     14 C12        -1.7476   -3.4931   -1.8421 C.3       1 <0>        -0.1104
     15 C13        -1.9508   -4.5524   -2.9248 C.3       1 <0>        -0.1214
     16 C14        -1.3517   -4.0454   -4.2396 C.3       1 <0>        -0.1233
     17 C15         0.1495   -3.8239   -4.0476 C.3       1 <0>        -0.0998
     18 C16         0.3969   -2.8091   -2.9430 C.3       1 <0>        -0.1012
     19 C17        -0.0334   -1.4329   -3.3491 C.2       1 <0>         0.5420
     20 O1         -0.2150   -1.1910   -4.5237 O.2       1 <0>        -0.5075
     21 N3         -0.2242   -0.4529   -2.4341 N.am      1 <0>        -0.6499
     22 H1          1.2145    1.7570   -0.1139 H         1 <0>         0.0809
     23 H2         -0.4135    1.8579   -0.8262 H         1 <0>         0.0842
     24 H3         -0.2154    1.8432    0.9426 H         1 <0>         0.0989
     25 H4          1.3116   -4.4335    0.2781 H         1 <0>         0.1269
     26 H5          1.3384   -6.4191    1.7304 H         1 <0>         0.1273
     27 H6          0.1076   -6.4067    3.8607 H         1 <0>         0.1245
     28 H7         -1.1551   -4.4108    4.5494 H         1 <0>         0.1260
     29 H8         -1.1847   -2.4130    3.1138 H         1 <0>         0.1251
     30 H9          0.2427   -4.1292   -1.2358 H         1 <0>         0.1014
     31 H10        -2.1932   -3.8393   -0.9096 H         1 <0>         0.0696
     32 H11        -2.2305   -2.5654   -2.1490 H         1 <0>         0.0563
     33 H12        -1.4525   -5.4758   -2.6294 H         1 <0>         0.0672
     34 H13        -3.0166   -4.7383   -3.0575 H         1 <0>         0.0647
     35 H14        -1.5142   -4.7847   -5.0239 H         1 <0>         0.0680
     36 H15        -1.8267   -3.1047   -4.5184 H         1 <0>         0.0648
     37 H16         0.6224   -4.7693   -3.7815 H         1 <0>         0.0778
     38 H17         0.5819   -3.4568   -4.9783 H         1 <0>         0.0771
     39 H18         1.4732   -2.7628   -2.7767 H         1 <0>         0.1010
     40 H19        -0.4519    0.4500   -2.7057 H         1 <0>         0.4125
@<TRIPOS>BOND
     1    1    2 1
     2    1   22 1
     3    1   23 1
     4    1   24 1
     5    2    6 1
     6    2    3 1
     7    3   21 1
     8    3    4 2
     9    4    5 1
    10    4   13 1
    11    5    6 2
    12    5    7 1
    13    7   12 ar
    14    7    8 ar
    15    8    9 ar
    16    8   25 1
    17    9   10 ar
    18    9   26 1
    19   10   11 ar
    20   10   27 1
    21   11   12 ar
    22   11   28 1
    23   12   29 1
    24   13   18 1
    25   13   14 1
    26   13   30 1
    27   14   15 1
    28   14   31 1
    29   14   32 1
    30   15   16 1
    31   15   33 1
    32   15   34 1
    33   16   17 1
    34   16   35 1
    35   16   36 1
    36   17   18 1
    37   17   37 1
    38   17   38 1
    39   18   19 1
    40   18   39 1
    41   19   20 2
    42   19   21 am
    43   21   40 1
