@<TRIPOS>MOLECULE
CHEMBL563541
   53    57     0     0     0
SMALL
USER_CHARGES

@<TRIPOS>ATOM
      1 C1          0.0886    1.1453    0.7511 C.ar      1 <0>        -0.1583
      2 C2          1.2737    1.8665    0.7744 C.ar      1 <0>        -0.0845
      3 C3          2.4864    1.2328    0.5984 C.ar      1 <0>        -0.1457
      4 C4          2.5191   -0.1400    0.3966 C.ar      1 <0>         0.1951
      5 C5          1.3159   -0.8683    0.3739 C.ar      1 <0>        -0.1591
      6 C6          0.0999   -0.2079    0.5535 C.ar      1 <0>        -0.0364
      7 C7          1.3834   -2.3193    0.1578 C.2       1 <0>         0.4746
      8 O1          0.2527   -3.0627    0.1274 O.3       1 <0>        -0.6565
      9 N1          2.5569   -2.8844   -0.0060 N.2       1 <0>        -0.6110
     10 C8          3.7022   -2.1757    0.0179 C.2       1 <0>         0.3608
     11 N2          3.7108   -0.8208    0.2147 N.pl3     1 <0>        -0.3512
     12 N3          5.0417   -0.3854    0.1859 N.2       1 <0>        -0.3249
     13 C9          5.8245   -1.4294   -0.0206 C.2       1 <0>         0.0706
     14 C10         5.0204   -2.5727   -0.1322 C.2       1 <0>        -0.2825
     15 C11         7.2989   -1.3975   -0.1190 C.2       1 <0>         0.6063
     16 O2          7.9261   -2.4365   -0.1872 O.2       1 <0>        -0.5286
     17 N4          7.9479   -0.2164   -0.1333 N.am      1 <0>        -0.6031
     18 C12         7.2139    1.0433    0.0488 C.3       1 <0>         0.0689
     19 C13         7.5445    1.9797   -1.1177 C.3       1 <0>        -0.1292
     20 C14         9.0625    2.1457   -1.2189 C.3       1 <0>        -0.1139
     21 C15         9.7090    0.7858   -1.4929 C.3       1 <0>        -0.0985
     22 C16         9.4036   -0.1644   -0.3250 C.3       1 <0>         0.1282
     23 C17        11.2234    0.9580   -1.6265 C.3       1 <0>         0.0641
     24 N5         11.8349   -0.3338   -1.9660 N.3       1 <0>        -0.5346
     25 C18        13.2991   -0.2702   -1.8501 C.3       1 <0>         0.0191
     26 C19        13.8901   -1.6495   -2.1537 C.3       1 <0>         0.0628
     27 O3         13.4676   -2.0678   -3.4545 O.3       1 <0>        -0.3877
     28 C20        12.0470   -2.1414   -3.6024 C.3       1 <0>         0.0623
     29 C21        11.4373   -0.7671   -3.3134 C.3       1 <0>         0.0165
     30 H1         -0.8517    1.6569    0.8947 H         1 <0>         0.1241
     31 H2          1.2465    2.9347    0.9316 H         1 <0>         0.1255
     32 H3          3.4045    1.8013    0.6172 H         1 <0>         0.1326
     33 H4         -0.8268   -0.7622    0.5370 H         1 <0>         0.1394
     34 H5          5.3667   -3.5813   -0.3030 H         1 <0>         0.1517
     35 H6          6.1426    0.8431    0.0643 H         1 <0>         0.1499
     36 H7          7.5143    1.5089    0.9875 H         1 <0>         0.0599
     37 H8          7.1624    1.5539   -2.0455 H         1 <0>         0.0645
     38 H9          7.0828    2.9520   -0.9459 H         1 <0>         0.0729
     39 H10         9.2994    2.8309   -2.0328 H         1 <0>         0.0607
     40 H11         9.4470    2.5484   -0.2819 H         1 <0>         0.0638
     41 H12         9.3065    0.3713   -2.4172 H         1 <0>         0.0759
     42 H13         9.8790    0.2047    0.5838 H         1 <0>         0.0618
     43 H14         9.7776   -1.1618   -0.5563 H         1 <0>         0.1017
     44 H15        11.4389    1.6801   -2.4140 H         1 <0>         0.0381
     45 H16        11.6329    1.3169   -0.6823 H         1 <0>         0.0780
     46 H17        13.6893    0.4576   -2.5616 H         1 <0>         0.0404
     47 H18        13.5715    0.0276   -0.8376 H         1 <0>         0.0856
     48 H19        14.9783   -1.5936   -2.1250 H         1 <0>         0.0957
     49 H20        13.5421   -2.3663   -1.4100 H         1 <0>         0.0616
     50 H21        11.8022   -2.4412   -4.6213 H         1 <0>         0.0976
     51 H22        11.6454   -2.8725   -2.9007 H         1 <0>         0.0644
     52 H23        10.3507   -0.8319   -3.3690 H         1 <0>         0.0901
     53 H24        11.7977   -0.0472   -4.0483 H         1 <0>         0.0407
@<TRIPOS>BOND
     1    1    6 ar
     2    1    2 ar
     3    1   30 1
     4    2    3 ar
     5    2   31 1
     6    3    4 ar
     7    3   32 1
     8    4   11 1
     9    4    5 ar
    10    5    6 ar
    11    5    7 1
    12    6   33 1
    13    7    8 1
    14    7    9 2
    15    9   10 1
    16   10   14 2
    17   10   11 1
    18   11   12 1
    19   12   13 2
    20   13   14 1
    21   13   15 1
    22   14   34 1
    23   15   16 2
    24   15   17 am
    25   17   22 1
    26   17   18 1
    27   18   19 1
    28   18   35 1
    29   18   36 1
    30   19   20 1
    31   19   37 1
    32   19   38 1
    33   20   21 1
    34   20   39 1
    35   20   40 1
    36   21   22 1
    37   21   23 1
    38   21   41 1
    39   22   42 1
    40   22   43 1
    41   23   24 1
    42   23   44 1
    43   23   45 1
    44   24   29 1
    45   24   25 1
    46   25   26 1
    47   25   46 1
    48   25   47 1
    49   26   27 1
    50   26   48 1
    51   26   49 1
    52   27   28 1
    53   28   29 1
    54   28   50 1
    55   28   51 1
    56   29   52 1
    57   29   53 1
