@<TRIPOS>MOLECULE
CHEMBL448924
   28    30     0     0     0
SMALL
USER_CHARGES

@<TRIPOS>ATOM
      1 C1         -0.0167    1.3769    0.0096 C.ar      1 <0>        -0.1132
      2 C2          1.1632    2.0980    0.0022 C.ar      1 <0>        -0.0857
      3 C3          2.3901    1.4397   -0.0135 C.ar      1 <0>        -0.0900
      4 C4          2.4203    0.0291   -0.0214 C.ar      1 <0>         0.1036
      5 C5          1.2109   -0.6850   -0.0132 C.ar      1 <0>         0.0355
      6 C6          0.0021   -0.0041    0.0020 C.ar      1 <0>        -0.0787
      7 N1          1.5594   -2.0218   -0.0239 N.pl3     1 <0>        -0.5951
      8 H1          0.9495   -2.7761   -0.0221 H         1 <0>         0.4227
      9 C7          2.9166   -2.0818   -0.0377 C.2       1 <0>         0.3000
     10 N2          3.4163   -0.8785   -0.0362 N.2       1 <0>        -0.4567
     11 C8          3.7253   -3.3533   -0.0521 C.3       1 <0>         0.0849
     12 C9          4.5344   -3.6902    1.2020 C.3       1 <0>        -0.1347
     13 C10         5.2495   -3.2210   -0.0666 C.3       1 <0>        -0.1337
     14 N3          3.1344   -4.4716   -0.7993 N.3       1 <0>        -0.7947
     15 C11         3.6468    2.2101   -0.0224 C.2       1 <0>         0.5575
     16 O1          4.7155    1.6299   -0.0361 O.2       1 <0>        -0.5109
     17 N4          3.6115    3.5573   -0.0152 N.am      1 <0>        -0.8550
     18 H2         -0.9621    1.8987    0.0260 H         1 <0>         0.1404
     19 H3          1.1329    3.1775    0.0083 H         1 <0>         0.1359
     20 H4         -0.9266   -0.5554    0.0083 H         1 <0>         0.1299
     21 H5          4.4818   -2.9922    2.0375 H         1 <0>         0.1001
     22 H6          4.6283   -4.7418    1.4730 H         1 <0>         0.1120
     23 H7          5.8138   -3.9640   -0.6303 H         1 <0>         0.1092
     24 H8          5.6673   -2.2143   -0.0657 H         1 <0>         0.1177
     25 H9          2.1283   -4.4663   -0.7226 H         1 <0>         0.3413
     26 H10         3.4234   -4.4535   -1.7658 H         1 <0>         0.3535
     27 H11         2.7590    4.0201   -0.0042 H         1 <0>         0.3986
     28 H12         4.4385    4.0642   -0.0210 H         1 <0>         0.4056
@<TRIPOS>BOND
     1    1    6 ar
     2    1    2 ar
     3    1   18 1
     4    2    3 ar
     5    2   19 1
     6    3    4 ar
     7    3   15 1
     8    4   10 1
     9    4    5 ar
    10    5    6 ar
    11    5    7 1
    12    6   20 1
    13    7    8 1
    14    7    9 1
    15    9   10 2
    16    9   11 1
    17   11   13 1
    18   11   12 1
    19   11   14 1
    20   12   13 1
    21   12   21 1
    22   12   22 1
    23   13   23 1
    24   13   24 1
    25   14   25 1
    26   14   26 1
    27   15   16 2
    28   15   17 am
    29   17   27 1
    30   17   28 1
