@<TRIPOS>MOLECULE
CHEMBL195966
   46    49     0     0     0
SMALL
USER_CHARGES

@<TRIPOS>ATOM
      1 C1         -0.0178    1.4648    0.0101 C.3       1 <0>        -0.0489
      2 N1          0.0021   -0.0041    0.0020 N.4       1 <0>        -0.3883
      3 C2          0.6976   -0.4795   -1.2025 C.3       1 <0>        -0.0181
      4 C3          0.7562   -1.9847   -1.1844 C.2       1 <0>         0.4971
      5 O1          0.7719   -2.5986   -2.2296 O.2       1 <0>        -0.4151
      6 N2          0.7907   -2.6529   -0.0173 N.am      1 <0>        -0.5184
      7 C4          0.7710   -1.9974    1.1572 C.2       1 <0>         0.4949
      8 O2          0.8003   -2.6225    2.1955 O.2       1 <0>        -0.4106
      9 C5          0.7128   -0.4924    1.1924 C.3       1 <0>        -0.0182
     10 C6          0.8485   -4.0546   -0.0253 C.ar      1 <0>         0.0561
     11 C7          2.0771   -4.6999   -0.0305 C.ar      1 <0>        -0.0474
     12 C8          2.1313   -6.0803   -0.0378 C.ar      1 <0>        -0.0689
     13 C9          0.9631   -6.8204   -0.0404 C.ar      1 <0>        -0.0450
     14 C10        -0.2632   -6.1822   -0.0353 C.ar      1 <0>        -0.1368
     15 C11        -0.3247   -4.8003   -0.0221 C.ar      1 <0>         0.1268
     16 F1         -1.5229   -4.1763   -0.0114 F         1 <0>        -0.1335
     17 C12         3.4656   -6.7807   -0.0435 C.3       1 <0>        -0.0195
     18 C13         3.9125   -7.0217    1.3754 C.2       1 <0>         0.1372
     19 C14         5.1893   -7.6863    1.6372 C.ar      1 <0>        -0.0651
     20 C15         6.0239   -8.1126    0.6024 C.ar      1 <0>        -0.0982
     21 C16         7.2077   -8.7287    0.8981 C.ar      1 <0>        -0.0854
     22 C17         7.5936   -8.9379    2.2159 C.ar      1 <0>        -0.1059
     23 C18         6.7902   -8.5284    3.2575 C.ar      1 <0>        -0.0536
     24 C19         5.5786   -7.8969    2.9797 C.ar      1 <0>        -0.1245
     25 C20         4.6789   -7.4364    4.0445 C.2       1 <0>         0.5286
     26 N3          3.5218   -6.8334    3.7006 N.am      1 <0>        -0.5337
     27 N4          3.1660   -6.6343    2.3664 N.2       1 <0>        -0.2269
     28 O3          4.9712   -7.5960    5.2162 O.2       1 <0>        -0.5140
     29 H1          1.0047    1.8421    0.0024 H         1 <0>         0.1326
     30 H2         -0.5450    1.8259   -0.8730 H         1 <0>         0.1373
     31 H3         -0.5280    1.8163    0.9069 H         1 <0>         0.1370
     32 H4          0.1577   -0.1472   -2.0891 H         1 <0>         0.1842
     33 H5          1.7102   -0.0764   -1.2206 H         1 <0>         0.1774
     34 H6          1.7255   -0.0895    1.2021 H         1 <0>         0.1771
     35 H7          0.1841   -0.1698    2.0894 H         1 <0>         0.1839
     36 H8          2.9903   -4.1233   -0.0292 H         1 <0>         0.1366
     37 H9          1.0090   -7.8994   -0.0469 H         1 <0>         0.1474
     38 H10        -1.1738   -6.7629   -0.0377 H         1 <0>         0.1524
     39 H11         3.3729   -7.7349   -0.5622 H         1 <0>         0.1169
     40 H12         4.2002   -6.1589   -0.5551 H         1 <0>         0.1111
     41 H13         5.7355   -7.9567   -0.4267 H         1 <0>         0.1414
     42 H14         7.8518   -9.0576    0.0960 H         1 <0>         0.1387
     43 H15         8.5331   -9.4272    2.4263 H         1 <0>         0.1402
     44 H16         7.0965   -8.6944    4.2797 H         1 <0>         0.1453
     45 H17         2.9231   -6.5269    4.3996 H         1 <0>         0.4366
     46 H18        -0.9442   -0.3543    0.0067 H         1 <0>         0.4393
@<TRIPOS>BOND
     1    1    2 1
     2    1   29 1
     3    1   30 1
     4    1   31 1
     5    2    9 1
     6    2    3 1
     7    2   46 1
     8    3    4 1
     9    3   32 1
    10    3   33 1
    11    4    5 2
    12    4    6 am
    13    6    7 am
    14    6   10 1
    15    7    8 2
    16    7    9 1
    17    9   34 1
    18    9   35 1
    19   10   15 ar
    20   10   11 ar
    21   11   12 ar
    22   11   36 1
    23   12   13 ar
    24   12   17 1
    25   13   14 ar
    26   13   37 1
    27   14   15 ar
    28   14   38 1
    29   15   16 1
    30   17   18 1
    31   17   39 1
    32   17   40 1
    33   18   27 2
    34   18   19 1
    35   19   24 ar
    36   19   20 ar
    37   20   21 ar
    38   20   41 1
    39   21   22 ar
    40   21   42 1
    41   22   23 ar
    42   22   43 1
    43   23   24 ar
    44   23   44 1
    45   24   25 1
    46   25   26 am
    47   25   28 2
    48   26   27 1
    49   26   45 1
