@<TRIPOS>MOLECULE
CHEMBL567400
   33    36     0     0     0
SMALL
USER_CHARGES

@<TRIPOS>ATOM
      1 C1         -0.0167    1.3773    0.0096 C.ar      1 <0>        -0.1238
      2 C2          1.1628    2.0989    0.0022 C.ar      1 <0>        -0.0879
      3 C3          2.3902    1.4413   -0.0135 C.ar      1 <0>        -0.0963
      4 C4          2.4212    0.0292   -0.0214 C.ar      1 <0>         0.1127
      5 C5          1.2102   -0.6855   -0.0132 C.ar      1 <0>         0.0326
      6 C6          0.0021   -0.0041    0.0020 C.ar      1 <0>        -0.0766
      7 N1          1.5540   -2.0238   -0.0238 N.pl3     1 <0>        -0.5966
      8 H1          0.9422   -2.7765   -0.0218 H         1 <0>         0.4251
      9 C7          2.9202   -2.0864   -0.0377 C.2       1 <0>         0.3579
     10 N2          3.4186   -0.8720   -0.0362 N.2       1 <0>        -0.4664
     11 C8          3.7147   -3.3324   -0.0519 C.ar      1 <0>        -0.0700
     12 C9          3.0705   -4.5718   -0.0575 C.ar      1 <0>        -0.0951
     13 C10         3.8110   -5.7322   -0.0712 C.ar      1 <0>        -0.1080
     14 C11         5.2057   -5.6704   -0.0794 C.ar      1 <0>         0.0769
     15 C12         5.8500   -4.4318   -0.0733 C.ar      1 <0>        -0.1087
     16 C13         5.1102   -3.2709   -0.0655 C.ar      1 <0>        -0.0578
     17 C14         6.0012   -6.9177   -0.0941 C.2       1 <0>         0.0668
     18 N3          5.5291   -8.1657   -0.1067 N.2       1 <0>        -0.3637
     19 N4          6.5423   -8.9629   -0.1174 N.2       1 <0>        -0.1885
     20 N5          7.6274   -8.2709   -0.1120 N.2       1 <0>        -0.1876
     21 N6          7.3319   -7.0161   -0.1032 N.2       1 <0>        -0.3608
     22 C15         3.6460    2.2122   -0.0223 C.2       1 <0>         0.5565
     23 O1          4.7151    1.6326   -0.0361 O.2       1 <0>        -0.5070
     24 N7          3.6099    3.5594   -0.0152 N.am      1 <0>        -0.8581
     25 H2         -0.9622    1.8989    0.0260 H         1 <0>         0.1355
     26 H3          1.1320    3.1784    0.0083 H         1 <0>         0.1315
     27 H4         -0.9268   -0.5551    0.0079 H         1 <0>         0.1272
     28 H5          1.9916   -4.6197   -0.0508 H         1 <0>         0.1162
     29 H6          3.3130   -6.6905   -0.0752 H         1 <0>         0.1361
     30 H7          6.9289   -4.3844   -0.0793 H         1 <0>         0.1382
     31 H8          5.6086   -2.3128   -0.0652 H         1 <0>         0.1396
     32 H9          2.7572    4.0217   -0.0042 H         1 <0>         0.3967
     33 H10         4.4366    4.0668   -0.0210 H         1 <0>         0.4032
@<TRIPOS>BOND
     1    1    6 ar
     2    1    2 ar
     3    1   25 1
     4    2    3 ar
     5    2   26 1
     6    3    4 ar
     7    3   22 1
     8    4   10 1
     9    4    5 ar
    10    5    6 ar
    11    5    7 1
    12    6   27 1
    13    7    8 1
    14    7    9 1
    15    9   10 2
    16    9   11 1
    17   11   16 ar
    18   11   12 ar
    19   12   13 ar
    20   12   28 1
    21   13   14 ar
    22   13   29 1
    23   14   15 ar
    24   14   17 1
    25   15   16 ar
    26   15   30 1
    27   16   31 1
    28   17   21 2
    29   17   18 1
    30   18   19 1
    31   19   20 2
    32   20   21 1
    33   22   23 2
    34   22   24 am
    35   24   32 1
    36   24   33 1
