@<TRIPOS>MOLECULE
CHEMBL84096
   51    54     0     0     0
SMALL
USER_CHARGES

@<TRIPOS>ATOM
      1 C1         -0.0168    1.3865    0.0097 C.ar      1 <0>        -0.1095
      2 C2          1.1462    2.1050    0.0024 C.ar      1 <0>        -0.0976
      3 C3          2.3708    1.4346   -0.0126 C.ar      1 <0>        -0.0046
      4 C4          2.3954    0.0237   -0.0207 C.ar      1 <0>        -0.1218
      5 C5          1.1988   -0.6916   -0.0133 C.ar      1 <0>        -0.0819
      6 C6          0.0021   -0.0041    0.0020 C.ar      1 <0>         0.0933
      7 F1         -1.1625   -0.6888    0.0100 F         1 <0>        -0.1283
      8 C7          3.7032   -0.6397   -0.0374 C.2       1 <0>         0.5532
      9 N1          4.8148    0.1129   -0.0374 N.am      1 <0>        -0.6346
     10 C8          4.7985    1.4906   -0.0258 C.2       1 <0>         0.1544
     11 C9          3.6450    2.1690   -0.0221 C.2       1 <0>        -0.1730
     12 C10         3.5766    3.6753   -0.0438 C.3       1 <0>         0.1724
     13 N2          4.9055    4.2422    0.2047 N.am      1 <0>        -0.6072
     14 C11         6.0402    3.6142   -0.4939 C.3       1 <0>         0.1084
     15 C12         6.1450    2.1728   -0.0017 C.3       1 <0>        -0.1071
     16 C13         5.0810    5.2896    1.0345 C.2       1 <0>         0.5278
     17 O1          4.1269    5.7852    1.5958 O.2       1 <0>        -0.5245
     18 C14         6.4628    5.8450    1.2650 C.3       1 <0>        -0.1740
     19 C15         6.3838    7.0205    2.2411 C.3       1 <0>         0.0054
     20 N3          7.7307    7.5619    2.4657 N.4       1 <0>        -0.3829
     21 C16         8.5590    6.5490    3.1309 C.3       1 <0>        -0.0139
     22 C17         9.9854    7.0781    3.2944 C.3       1 <0>        -0.1453
     23 C18         9.9571    8.3533    4.1419 C.3       1 <0>        -0.1404
     24 C19         9.0314    9.3760    3.4767 C.3       1 <0>        -0.1460
     25 C20         7.6403    8.7618    3.3064 C.3       1 <0>        -0.0061
     26 O2          3.7797   -1.8552   -0.0506 O.2       1 <0>        -0.5095
     27 H1         -0.9635    1.9061    0.0260 H         1 <0>         0.1474
     28 H2          1.1179    3.1846    0.0079 H         1 <0>         0.1447
     29 H3          1.2081   -1.7716   -0.0192 H         1 <0>         0.1549
     30 H4          3.2183    4.0070   -1.0183 H         1 <0>         0.0907
     31 H5          2.8874    4.0171    0.7284 H         1 <0>         0.1086
     32 H6          5.8645    3.6258   -1.5695 H         1 <0>         0.0950
     33 H7          6.9600    4.1516   -0.2628 H         1 <0>         0.0973
     34 H8          6.5289    2.1703    1.0185 H         1 <0>         0.0959
     35 H9          6.8348    1.6250   -0.6437 H         1 <0>         0.1049
     36 H10         7.1018    5.0675    1.6836 H         1 <0>         0.1173
     37 H11         6.8797    6.1869    0.3176 H         1 <0>         0.1198
     38 H12         5.7448    7.7981    1.8225 H         1 <0>         0.1416
     39 H13         5.9669    6.6787    3.1885 H         1 <0>         0.1392
     40 H14         8.1403    6.3251    4.1121 H         1 <0>         0.1304
     41 H15         8.5756    5.6409    2.5282 H         1 <0>         0.1283
     42 H16        10.5983    6.3252    3.7901 H         1 <0>         0.1122
     43 H17        10.4052    7.3020    2.3137 H         1 <0>         0.0880
     44 H18         9.5852    8.1198    5.1395 H         1 <0>         0.0823
     45 H19        10.9635    8.7654    4.2140 H         1 <0>         0.0947
     46 H20         8.9623   10.2656    4.1026 H         1 <0>         0.1132
     47 H21         9.4314    9.6476    2.4998 H         1 <0>         0.0879
     48 H22         6.9786    9.4873    2.8333 H         1 <0>         0.1321
     49 H23         7.2412    8.4907    4.2839 H         1 <0>         0.1299
     50 H24         5.6743   -0.3366   -0.0457 H         1 <0>         0.4154
     51 H25         8.1469    7.8044    1.5791 H         1 <0>         0.4217
@<TRIPOS>BOND
     1    1    6 ar
     2    1    2 ar
     3    1   27 1
     4    2    3 ar
     5    2   28 1
     6    3   11 1
     7    3    4 ar
     8    4    5 ar
     9    4    8 1
    10    5    6 ar
    11    5   29 1
    12    6    7 1
    13    8    9 am
    14    8   26 2
    15    9   10 1
    16    9   50 1
    17   10   15 1
    18   10   11 2
    19   11   12 1
    20   12   13 1
    21   12   30 1
    22   12   31 1
    23   13   14 1
    24   13   16 am
    25   14   15 1
    26   14   32 1
    27   14   33 1
    28   15   34 1
    29   15   35 1
    30   16   17 2
    31   16   18 1
    32   18   19 1
    33   18   36 1
    34   18   37 1
    35   19   20 1
    36   19   38 1
    37   19   39 1
    38   20   25 1
    39   20   21 1
    40   20   51 1
    41   21   22 1
    42   21   40 1
    43   21   41 1
    44   22   23 1
    45   22   42 1
    46   22   43 1
    47   23   24 1
    48   23   44 1
    49   23   45 1
    50   24   25 1
    51   24   46 1
    52   24   47 1
    53   25   48 1
    54   25   49 1
