@<TRIPOS>MOLECULE
ZINC61707083
   28    29     0     0     0
SMALL
USER_CHARGES

@<TRIPOS>ATOM
      1 C1         -0.0167    1.3798    0.0096 C.ar      1 <0>        -0.1997
      2 C2          1.1731    2.0877    0.0021 C.ar      1 <0>         0.1982
      3 C3          2.3807    1.4109   -0.0131 C.ar      1 <0>        -0.1583
      4 C4          2.3987    0.0279   -0.0207 C.ar      1 <0>         0.0439
      5 C5          1.2107   -0.6797   -0.0136 C.ar      1 <0>        -0.7192
      6 C6          0.0021   -0.0041    0.0020 C.ar      1 <0>         0.2411
      7 F1         -1.1585   -0.6956    0.0094 F         1 <0>        -0.0948
      8 S1          1.2348   -2.4415   -0.0239 S.o2      1 <0>         2.6957
      9 O1         -0.0099   -2.8616   -0.5655 O.2       1 <0>        -0.9300
     10 O2          2.4804   -2.8274   -0.5886 O.2       1 <0>        -0.9154
     11 N1          1.2564   -2.9401    1.5551 N.pl3     1 <0>        -1.0028
     12 C7          2.4653   -3.1762    2.3652 C.3       1 <0>         0.1175
     13 C8          1.9991   -3.0046    3.8325 C.3       1 <0>        -0.1679
     14 C9          0.5779   -3.6250    3.7825 C.3       1 <0>         0.0970
     15 H1          0.6272   -4.7099    3.8757 H         1 <0>         0.0808
     16 C10         0.0729   -3.2145    2.3832 C.3       1 <0>         0.1230
     17 O3         -0.2528   -3.0688    4.8036 O.3       1 <0>        -0.5592
     18 Br1         4.0487   -0.8957   -0.0414 Br        1 <0>         0.0327
     19 F2          1.1557    3.4386    0.0090 F         1 <0>        -0.1101
     20 H2         -0.9590    1.9073    0.0260 H         1 <0>         0.1683
     21 H3          3.3089    1.9630   -0.0194 H         1 <0>         0.1647
     22 H4          2.8399   -4.1867    2.2019 H         1 <0>         0.0827
     23 H5          3.2336   -2.4420    2.1229 H         1 <0>         0.0816
     24 H6          2.6437   -3.5590    4.5146 H         1 <0>         0.0906
     25 H7          1.9560   -1.9508    4.1080 H         1 <0>         0.0864
     26 H8         -0.5433   -2.3186    2.4576 H         1 <0>         0.0791
     27 H9         -0.5047   -4.0290    1.9461 H         1 <0>         0.0876
     28 H10         0.0658   -3.2317    5.7019 H         1 <0>         0.3864
@<TRIPOS>BOND
     1    1    6 ar
     2    1    2 ar
     3    1   20 1
     4    2    3 ar
     5    2   19 1
     6    3    4 ar
     7    3   21 1
     8    4    5 ar
     9    4   18 1
    10    5    6 ar
    11    5    8 1
    12    6    7 1
    13    8    9 2
    14    8   10 2
    15    8   11 1
    16   11   16 1
    17   11   12 1
    18   12   13 1
    19   12   22 1
    20   12   23 1
    21   13   14 1
    22   13   24 1
    23   13   25 1
    24   14   15 1
    25   14   16 1
    26   14   17 1
    27   16   26 1
    28   16   27 1
    29   17   28 1
