@<TRIPOS>MOLECULE
ZINC44475106
   33    33     0     0     0
SMALL
USER_CHARGES

@<TRIPOS>ATOM
      1 C1         -0.0187    1.5258    0.0104 C.3       1 <0>        -0.1544
      2 C2          0.0021   -0.0041    0.0020 C.3       1 <0>         0.0649
      3 O1         -1.3386   -0.4987    0.0122 O.3       1 <0>        -0.3248
      4 C3         -1.4984   -1.8485    0.0064 C.ar      1 <0>         0.1267
      5 C4         -1.5857   -2.5327   -1.1970 C.ar      1 <0>        -0.0826
      6 C5         -1.7477   -3.9047   -1.2003 C.ar      1 <0>        -0.0871
      7 C6         -1.8232   -4.5965   -0.0055 C.ar      1 <0>        -0.0953
      8 C7         -1.7369   -3.9177    1.1958 C.ar      1 <0>        -0.0886
      9 C8         -1.5686   -2.5455    1.2049 C.ar      1 <0>        -0.0527
     10 Cl1        -1.4531   -1.6940    2.7133 Cl        1 <0>        -0.0386
     11 C9         -2.0003   -6.0930   -0.0127 C.3       1 <0>         0.1244
     12 H1         -2.3966   -6.4073   -0.9783 H         1 <0>         0.1213
     13 C10        -0.6484   -6.7678    0.2278 C.3       1 <0>        -0.0535
     14 N1         -0.8390   -8.2200    0.3400 N.4       1 <0>        -0.6377
     15 N2         -2.9370   -6.4804    1.0506 N.3       1 <0>        -0.8352
     16 C11        -1.5046   -1.7799   -2.4999 C.3       1 <0>        -0.1208
     17 H2          1.0039    1.9031    0.0027 H         1 <0>         0.0810
     18 H3         -0.5459    1.8868   -0.8726 H         1 <0>         0.0686
     19 H4         -0.5289    1.8773    0.9072 H         1 <0>         0.0690
     20 H5          0.5123   -0.3556   -0.8948 H         1 <0>         0.0564
     21 H6          0.5293   -0.3651    0.8851 H         1 <0>         0.0565
     22 H7         -1.8157   -4.4375   -2.1373 H         1 <0>         0.1378
     23 H8         -1.7969   -4.4602    2.1277 H         1 <0>         0.1347
     24 H9          0.0188   -6.5524   -0.6068 H         1 <0>         0.1472
     25 H10        -0.2110   -6.3864    1.1505 H         1 <0>         0.1375
     26 H11        -1.2439   -8.5731   -0.5141 H         1 <0>         0.4380
     27 H12         0.0526   -8.6650    0.4987 H         1 <0>         0.4433
     28 H13        -3.1225   -7.4719    1.0255 H         1 <0>         0.3421
     29 H14        -2.5919   -6.1998    1.9563 H         1 <0>         0.3588
     30 H15        -0.4644   -1.7184   -2.8199 H         1 <0>         0.0772
     31 H16        -2.0878   -2.3022   -3.2583 H         1 <0>         0.0765
     32 H17        -1.9029   -0.7744   -2.3640 H         1 <0>         0.0825
     33 H18        -1.4566   -8.4195    1.1126 H         1 <0>         0.4272
@<TRIPOS>BOND
     1    1    2 1
     2    1   17 1
     3    1   18 1
     4    1   19 1
     5    2    3 1
     6    2   20 1
     7    2   21 1
     8    3    4 1
     9    4    9 ar
    10    4    5 ar
    11    5    6 ar
    12    5   16 1
    13    6    7 ar
    14    6   22 1
    15    7    8 ar
    16    7   11 1
    17    8    9 ar
    18    8   23 1
    19    9   10 1
    20   11   12 1
    21   11   13 1
    22   11   15 1
    23   13   14 1
    24   13   24 1
    25   13   25 1
    26   14   26 1
    27   14   27 1
    28   14   33 1
    29   15   28 1
    30   15   29 1
    31   16   30 1
    32   16   31 1
    33   16   32 1
