@<TRIPOS>MOLECULE
ZINC20222159
   44    46     0     0     0
SMALL
USER_CHARGES
(3R,4S)-3-amino-7-ethoxy-spiro[chroman-2,1'-cyclohexane]-4-ol
@<TRIPOS>ATOM
      1 C1          5.3368   -1.7820   -5.8673 C.3       1 <0>        -0.1587
      2 C2          4.6218   -1.4834   -4.5480 C.3       1 <0>         0.0504
      3 O1          4.0774   -0.1628   -4.5895 O.3       1 <0>        -0.3053
      4 C3          3.4053    0.2624   -3.4875 C.ar      1 <0>         0.1929
      5 C4          3.2717   -0.5745   -2.3882 C.ar      1 <0>        -0.2311
      6 C5          2.5869   -0.1401   -1.2716 C.ar      1 <0>        -0.0099
      7 C6          2.0302    1.1285   -1.2400 C.ar      1 <0>        -0.2355
      8 C7          2.1630    1.9678   -2.3326 C.ar      1 <0>         0.1645
      9 C8          2.8518    1.5311   -3.4589 C.ar      1 <0>        -0.1812
     10 O2          1.6368    3.2206   -2.3412 O.3       1 <0>        -0.2958
     11 C9          0.6384    3.5303   -1.3696 C.3       1 <0>         0.1166
     12 C10         0.3777    5.0366   -1.3565 C.3       1 <0>        -0.1155
     13 C11        -0.1286    5.4796   -2.7309 C.3       1 <0>        -0.1197
     14 C12        -1.4252    4.7372   -3.0601 C.3       1 <0>        -0.1266
     15 C13        -1.1607    3.2304   -3.0766 C.3       1 <0>        -0.1206
     16 C14        -0.6554    2.7866   -1.7021 C.3       1 <0>        -0.1445
     17 C15         1.1438    3.0859    0.0077 C.3       1 <0>        -0.0258
     18 H1          0.4670    3.4178    0.8088 H         1 <0>         0.1535
     19 C16         1.2864    1.5618   -0.0018 C.3       1 <0>         0.1643
     20 H2          1.8011    1.1982    0.8998 H         1 <0>         0.0894
     21 O3         -0.0110    0.9628    0.0073 O.3       1 <0>        -0.5621
     22 N1          2.4486    3.7036    0.2794 N.4       1 <0>        -0.6801
     23 H3          5.7558   -2.7986   -5.8353 H         1 <0>         0.0867
     24 H4          6.1488   -1.0552   -6.0169 H         1 <0>         0.0703
     25 H5          4.6198   -1.7069   -6.6981 H         1 <0>         0.0710
     26 H6          3.8098   -2.2102   -4.3984 H         1 <0>         0.0699
     27 H7          5.3388   -1.5585   -3.7172 H         1 <0>         0.0693
     28 H8          3.7029   -1.5645   -2.4069 H         1 <0>         0.1407
     29 H9          2.4841   -0.7928   -0.4173 H         1 <0>         0.1358
     30 H10         2.9549    2.1831   -4.3136 H         1 <0>         0.1475
     31 H11        -0.3798    5.2710   -0.5941 H         1 <0>         0.0986
     32 H12         1.3115    5.5683   -1.1212 H         1 <0>         0.0672
     33 H13        -0.3190    6.5629   -2.7198 H         1 <0>         0.0762
     34 H14         0.6300    5.2484   -3.4931 H         1 <0>         0.0770
     35 H15        -2.1835    4.9678   -2.2974 H         1 <0>         0.0655
     36 H16        -1.7897    5.0561   -4.0477 H         1 <0>         0.0731
     37 H17        -2.0929    2.6971   -3.3145 H         1 <0>         0.0743
     38 H18        -0.4016    2.9997   -3.8385 H         1 <0>         0.0694
     39 H19        -0.4630    1.7036   -1.7145 H         1 <0>         0.1118
     40 H20        -1.4158    3.0152   -0.9408 H         1 <0>         0.0826
     41 H21        -0.7036    1.1633    0.8381 H         1 <0>         0.4213
     42 H22         2.8076    3.3823    1.2683 H         1 <0>         0.4592
     43 H23         2.3460    4.7987    0.2646 H         1 <0>         0.4576
     44 H24         3.1692    3.3924   -0.4912 H         1 <0>         0.4556
@<TRIPOS>BOND
     1    1    2 1
     2    1   23 1
     3    1   24 1
     4    1   25 1
     5    2    3 1
     6    2   26 1
     7    2   27 1
     8    3    4 1
     9    4    9 ar
    10    4    5 ar
    11    5    6 ar
    12    5   28 1
    13    6    7 ar
    14    6   29 1
    15    7   19 1
    16    7    8 ar
    17    8    9 ar
    18    8   10 1
    19    9   30 1
    20   10   11 1
    21   11   16 1
    22   11   12 1
    23   11   17 1
    24   12   13 1
    25   12   31 1
    26   12   32 1
    27   13   14 1
    28   13   33 1
    29   13   34 1
    30   14   15 1
    31   14   35 1
    32   14   36 1
    33   15   16 1
    34   15   37 1
    35   15   38 1
    36   16   39 1
    37   16   40 1
    38   17   18 1
    39   17   19 1
    40   17   22 1
    41   19   20 1
    42   19   21 1
    43   21   41 1
    44   22   42 1
    45   22   43 1
    46   22   44 1
