@<TRIPOS>MOLECULE
ZINC33161943
   59    63     0     0     0
SMALL
USER_CHARGES
[2-ethoxy-4-[hydroxy(methyl)BLAHyl]phenyl] 2-chlorobenzoate
@<TRIPOS>ATOM
      1 C1         -3.7359   -0.9597   -0.0967 C.3       1 <0>        -0.1558
      2 C2         -2.3255   -0.3670   -0.0734 C.3       1 <0>         0.0545
      3 O1         -2.4086    1.0591   -0.0369 O.3       1 <0>        -0.3054
      4 C3         -1.2351    1.7454   -0.0124 C.ar      1 <0>         0.1340
      5 C4         -0.0300    1.0612   -0.0233 C.ar      1 <0>        -0.1667
      6 C5          1.1621    1.7606   -0.0042 C.ar      1 <0>        -0.0769
      7 C6          1.1558    3.1428    0.0315 C.ar      1 <0>        -0.1287
      8 C7         -0.0424    3.8315    0.0479 C.ar      1 <0>        -0.0772
      9 C8         -1.2414    3.1366    0.0289 C.ar      1 <0>         0.0627
     10 O2         -2.4212    3.8125    0.0449 O.3       1 <0>        -0.2783
     11 C9         -3.0451    3.9257    1.2335 C.2       1 <0>         0.5069
     12 O3         -2.5050    3.5218    2.2440 O.2       1 <0>        -0.4715
     13 C10        -4.3853    4.5405    1.3081 C.ar      1 <0>        -0.1222
     14 C11        -5.0070    5.0112    0.1492 C.ar      1 <0>        -0.0485
     15 C12        -6.2612    5.5790    0.2252 C.ar      1 <0>        -0.1265
     16 C13        -6.9002    5.6941    1.4478 C.ar      1 <0>        -0.0660
     17 C14        -6.2895    5.2360    2.6007 C.ar      1 <0>        -0.1233
     18 C15        -5.0356    4.6596    2.5393 C.ar      1 <0>         0.0199
     19 Cl1        -4.2697    4.0853    3.9875 Cl        1 <0>        -0.0344
     20 C16         2.4715    1.0149   -0.0218 C.3       1 <0>         0.3914
     21 H1          2.8403    0.8414   -1.0435 H         1 <0>         0.1315
     22 N1          3.4861    1.8078    0.6966 N.pl3     1 <0>        -0.7018
     23 C17         3.5223    1.6586    2.0620 C.2       1 <0>         0.1685
     24 C18         3.0514    0.5057    2.7039 C.2       1 <0>        -0.2624
     25 C19         3.1667    0.4963    4.1496 C.2       1 <0>        -0.0028
     26 C20         3.7099    1.6074    4.7027 C.2       1 <0>        -0.3213
     27 S1          4.0740    2.6671    3.3298 S.3       1 <0>         0.2277
     28 C21         3.9376    1.8553    6.1603 C.3       1 <0>         0.1108
     29 N2          3.1597    0.8622    6.9249 N.4       1 <0>        -0.3999
     30 C22         3.3952   -0.4928    6.4071 C.3       1 <0>        -0.0017
     31 C23         2.7233   -0.6583    5.0412 C.3       1 <0>        -0.0885
     32 C24         3.4717    0.9395    8.3583 C.3       1 <0>        -0.0449
     33 C25         2.4861   -0.5675    1.8463 C.2       1 <0>         0.4704
     34 N3          2.2807   -0.2953    0.5874 N.2       1 <0>        -0.6358
     35 O4          2.1930   -1.7868    2.3546 O.3       1 <0>        -0.4941
     36 H2         -3.6719   -2.0575   -0.1248 H         1 <0>         0.0838
     37 H3         -4.2698   -0.6006   -0.9889 H         1 <0>         0.0708
     38 H4         -4.2799   -0.6471    0.8068 H         1 <0>         0.0670
     39 H5         -1.7916   -0.7261    0.8188 H         1 <0>         0.0606
     40 H6         -1.7814   -0.6796   -0.9769 H         1 <0>         0.0676
     41 H7         -0.0223   -0.0184   -0.0512 H         1 <0>         0.1451
     42 H8          2.0894    3.6856    0.0464 H         1 <0>         0.1295
     43 H9         -0.0444    4.9112    0.0758 H         1 <0>         0.1413
     44 H10        -4.5084    4.9263   -0.8051 H         1 <0>         0.1481
     45 H11        -6.7443    5.9395   -0.6709 H         1 <0>         0.1427
     46 H12        -7.8804    6.1443    1.5015 H         1 <0>         0.1437
     47 H13        -6.7938    5.3294    3.5512 H         1 <0>         0.1458
     48 H14         4.1613    2.4728    0.1380 H         1 <0>         0.4520
     49 H15         5.0090    1.7514    6.3869 H         1 <0>         0.1367
     50 H16         3.6058    2.8726    6.4155 H         1 <0>         0.1400
     51 H17         4.4769   -0.6616    6.3001 H         1 <0>         0.1298
     52 H18         2.9765   -1.2308    7.1071 H         1 <0>         0.1382
     53 H19         1.6292   -0.6361    5.1528 H         1 <0>         0.1063
     54 H20         3.0260   -1.6119    4.5839 H         1 <0>         0.1327
     55 H21         2.8792    0.1900    8.9034 H         1 <0>         0.1273
     56 H22         3.2265    1.9441    8.7332 H         1 <0>         0.1267
     57 H23         4.5430    0.7423    8.5115 H         1 <0>         0.1210
     58 H24         1.7750   -2.5683    1.7031 H         1 <0>         0.4515
     59 H25         2.0908    1.0917    6.8031 H         1 <0>         0.4485
@<TRIPOS>BOND
     1    1    2 1
     2    1   36 1
     3    1   37 1
     4    1   38 1
     5    2    3 1
     6    2   39 1
     7    2   40 1
     8    3    4 1
     9    4    9 ar
    10    4    5 ar
    11    5    6 ar
    12    5   41 1
    13    6    7 ar
    14    6   20 1
    15    7    8 ar
    16    7   42 1
    17    8    9 ar
    18    8   43 1
    19    9   10 1
    20   10   11 1
    21   11   12 2
    22   11   13 1
    23   13   18 ar
    24   13   14 ar
    25   14   15 ar
    26   14   44 1
    27   15   16 ar
    28   15   45 1
    29   16   17 ar
    30   16   46 1
    31   17   18 ar
    32   17   47 1
    33   18   19 1
    34   20   21 1
    35   20   34 1
    36   20   22 1
    37   22   23 1
    38   22   48 1
    39   23   27 1
    40   23   24 2
    41   24   25 1
    42   24   33 1
    43   25   31 1
    44   25   26 2
    45   26   27 1
    46   26   28 1
    47   28   29 1
    48   28   49 1
    49   28   50 1
    50   29   30 1
    51   29   32 1
    52   29   59 1
    53   30   31 1
    54   30   51 1
    55   30   52 1
    56   31   53 1
    57   31   54 1
    58   32   55 1
    59   32   56 1
    60   32   57 1
    61   33   34 2
    62   33   35 1
    63   35   58 1
