@<TRIPOS>MOLECULE
ZINC41838514
   44    45     0     0     0
SMALL
USER_CHARGES

@<TRIPOS>ATOM
      1 C1         -0.4326    1.0290   -0.0605 C.3       1 <0>        -0.1845
      2 C2         -0.1280   -0.4678    0.0277 C.3       1 <0>         0.0306
      3 H1          0.4075   -0.7908   -0.8650 H         1 <0>         0.1542
      4 C3         -1.4395   -1.2625    0.1690 C.3       1 <0>        -0.1241
      5 C4         -1.3064   -2.0268    1.5062 C.3       1 <0>        -0.1350
      6 C5          0.2263   -2.0722    1.7282 C.3       1 <0>        -0.0308
      7 N1          0.6849   -0.7465    1.2314 N.4       1 <0>        -0.3639
      8 C6          2.1101   -0.7978    0.8794 C.3       1 <0>         0.0392
      9 C7          2.5077    0.4992    0.1719 C.3       1 <0>        -0.1542
     10 C8          2.9316   -0.9586    2.1326 C.ar      1 <0>        -0.0925
     11 C9          2.3078   -1.0262    3.3635 C.ar      1 <0>        -0.1441
     12 C10         3.0637   -1.1747    4.5166 C.ar      1 <0>         0.0940
     13 C11         4.4461   -1.2553    4.4342 C.ar      1 <0>        -0.1572
     14 C12         5.0696   -1.1877    3.2037 C.ar      1 <0>        -0.1676
     15 C13         4.3132   -1.0445    2.0498 C.ar      1 <0>         0.1470
     16 O1          4.9268   -0.9836    0.8378 O.3       1 <0>        -0.2580
     17 C14         6.3526   -1.0785    0.8269 C.3       1 <0>         0.0244
     18 O2          2.4498   -1.2408    5.7282 O.3       1 <0>        -0.3190
     19 C15         3.2902   -1.3940    6.8738 C.3       1 <0>         0.0272
     20 C16         2.3592   -1.9672   -0.0380 C.2       1 <0>         0.5042
     21 O3          1.4186   -2.5792   -0.5147 O.co2     1 <0>        -0.6656
     22 O4          3.5013   -2.3012   -0.3035 O.co2     1 <0>        -0.5990
     23 H2          0.5017    1.5865   -0.1280 H         1 <0>         0.0803
     24 H3         -1.0375    1.2252   -0.9457 H         1 <0>         0.0966
     25 H4         -0.9787    1.3417    0.8294 H         1 <0>         0.0707
     26 H5         -2.2914   -0.5835    0.2045 H         1 <0>         0.0887
     27 H6         -1.5479   -1.9638   -0.6584 H         1 <0>         0.1006
     28 H7         -1.7970   -1.4816    2.3126 H         1 <0>         0.0807
     29 H8         -1.7131   -3.0341    1.4169 H         1 <0>         0.1056
     30 H9          0.4584   -2.1882    2.7869 H         1 <0>         0.1169
     31 H10         0.6760   -2.8754    1.1445 H         1 <0>         0.1732
     32 H11         2.3276    1.3450    0.8355 H         1 <0>         0.0633
     33 H12         3.5653    0.4611   -0.0892 H         1 <0>         0.1092
     34 H13         1.9136    0.6155   -0.7345 H         1 <0>         0.0773
     35 H14         1.2316   -0.9631    3.4276 H         1 <0>         0.1289
     36 H15         5.0348   -1.3706    5.3323 H         1 <0>         0.1343
     37 H16         6.1460   -1.2498    3.1396 H         1 <0>         0.1379
     38 H17         6.7130   -1.0162   -0.1999 H         1 <0>         0.1005
     39 H18         6.7756   -0.2610    1.4107 H         1 <0>         0.0466
     40 H19         6.6566   -2.0307    1.2616 H         1 <0>         0.0530
     41 H20         3.8617   -2.3178    6.7842 H         1 <0>         0.0564
     42 H21         3.9746   -0.5481    6.9380 H         1 <0>         0.0557
     43 H22         2.6752   -1.4329    7.7729 H         1 <0>         0.1018
     44 H23         0.5234   -0.0384    1.9319 H         1 <0>         0.3964
@<TRIPOS>BOND
     1    1    2 1
     2    1   23 1
     3    1   24 1
     4    1   25 1
     5    2    3 1
     6    2    7 1
     7    2    4 1
     8    4    5 1
     9    4   26 1
    10    4   27 1
    11    5    6 1
    12    5   28 1
    13    5   29 1
    14    6    7 1
    15    6   30 1
    16    6   31 1
    17    7    8 1
    18    7   44 1
    19    8    9 1
    20    8   10 1
    21    8   20 1
    22    9   32 1
    23    9   33 1
    24    9   34 1
    25   10   15 ar
    26   10   11 ar
    27   11   12 ar
    28   11   35 1
    29   12   13 ar
    30   12   18 1
    31   13   14 ar
    32   13   36 1
    33   14   15 ar
    34   14   37 1
    35   15   16 1
    36   16   17 1
    37   17   38 1
    38   17   39 1
    39   17   40 1
    40   18   19 1
    41   19   41 1
    42   19   42 1
    43   19   43 1
    44   20   21 2
    45   20   22 1
