@<TRIPOS>MOLECULE
ZINC50602517
   41    42     0     0     0
SMALL
USER_CHARGES

@<TRIPOS>ATOM
      1 C1          3.4660   -0.0009    1.4108 C.3       1 <0>        -0.1221
      2 C2          3.2576   -1.5168    1.2151 C.3       1 <0>        -0.1286
      3 C3          1.7511   -1.6533    0.8820 C.3       1 <0>        -0.1048
      4 C4          1.4834   -0.4119   -0.0048 C.3       1 <0>        -0.1170
      5 C5          2.3379    0.7016    0.6351 C.3       1 <0>        -0.1272
      6 C6          0.0005   -0.0371    0.0323 C.3       1 <0>         0.0050
      7 N1         -0.2099    1.2041   -0.7247 N.4       1 <0>        -0.6402
      8 C7          1.9282   -0.6699   -1.4214 C.2       1 <0>         0.5011
      9 O1          2.8414   -0.0287   -1.8965 O.2       1 <0>        -0.4997
     10 N2          1.3112   -1.6132   -2.1603 N.am      1 <0>        -0.7308
     11 C8          1.6666   -1.7875   -3.5708 C.3       1 <0>         0.1271
     12 C9          0.8257   -2.9149   -4.1731 C.3       1 <0>        -0.1109
     13 H1         -0.2325   -2.7145   -4.0056 H         1 <0>         0.1041
     14 C10         1.2101   -4.2540   -3.5224 C.3       1 <0>        -0.1250
     15 C11         0.6097   -5.4269   -4.3344 C.3       1 <0>        -0.5825
     16 S1          0.5083   -4.7314   -6.0339 S.o2      1 <0>         2.3736
     17 O2         -0.8551   -4.6764   -6.4304 O.2       1 <0>        -0.9286
     18 O3          1.4513   -5.3970   -6.8628 O.2       1 <0>        -0.9261
     19 C12         1.1052   -3.0208   -5.6995 C.3       1 <0>        -0.5788
     20 H2          3.4042    0.2509    2.4695 H         1 <0>         0.0767
     21 H3          4.4355    0.2973    1.0116 H         1 <0>         0.0776
     22 H4          3.8659   -1.8819    0.3876 H         1 <0>         0.0722
     23 H5          3.4959   -2.0561    2.1319 H         1 <0>         0.0843
     24 H6          1.5597   -2.5723    0.3281 H         1 <0>         0.0825
     25 H7          1.1497   -1.6160    1.7903 H         1 <0>         0.0954
     26 H8          1.7286    1.2944    1.3174 H         1 <0>         0.0799
     27 H9          2.7599    1.3407   -0.1405 H         1 <0>         0.0945
     28 H10        -0.5882   -0.8388   -0.4136 H         1 <0>         0.1386
     29 H11        -0.3112    0.1107    1.0663 H         1 <0>         0.1524
     30 H12        -1.1719    1.4947   -0.6335 H         1 <0>         0.4429
     31 H13         0.3952    1.9257   -0.3624 H         1 <0>         0.4385
     32 H14         0.6318   -2.1768   -1.7581 H         1 <0>         0.4036
     33 H15         1.4728   -0.8610   -4.1114 H         1 <0>         0.0852
     34 H16         2.7239   -2.0403   -3.6505 H         1 <0>         0.0870
     35 H17         2.2959   -4.3473   -3.5007 H         1 <0>         0.0931
     36 H18         0.8249   -4.2849   -2.5032 H         1 <0>         0.0926
     37 H19         1.2715   -6.2926   -4.3099 H         1 <0>         0.1465
     38 H20        -0.3818   -5.6863   -3.9632 H         1 <0>         0.1416
     39 H21         0.5264   -2.2853   -6.2582 H         1 <0>         0.1470
     40 H22         2.1700   -2.9259   -5.9128 H         1 <0>         0.1464
     41 H23         0.0023    1.0445   -1.6981 H         1 <0>         0.4332
@<TRIPOS>BOND
     1    1    5 1
     2    1    2 1
     3    1   20 1
     4    1   21 1
     5    2    3 1
     6    2   22 1
     7    2   23 1
     8    3    4 1
     9    3   24 1
    10    3   25 1
    11    4    5 1
    12    4    6 1
    13    4    8 1
    14    5   26 1
    15    5   27 1
    16    6    7 1
    17    6   28 1
    18    6   29 1
    19    7   30 1
    20    7   31 1
    21    7   41 1
    22    8    9 2
    23    8   10 am
    24   10   11 1
    25   10   32 1
    26   11   12 1
    27   11   33 1
    28   11   34 1
    29   12   13 1
    30   12   19 1
    31   12   14 1
    32   14   15 1
    33   14   35 1
    34   14   36 1
    35   15   16 1
    36   15   37 1
    37   15   38 1
    38   16   17 2
    39   16   18 2
    40   16   19 1
    41   19   39 1
    42   19   40 1
