@<TRIPOS>MOLECULE
ZINC28348158
   61    65     0     0     0
SMALL
USER_CHARGES
[1-[4-[4-(2,3-dihydro-1,4-benzodioxin-6-ylsulfanyl)-3-(trifluoromethyl)phenyl]-2-pyridyl]-4-piperidyl]methanol
@<TRIPOS>ATOM
      1 C1          1.7664   -4.2148    0.2009 C.ar      1 <0>        -0.0245
      2 C2          2.1295   -2.8898    0.0930 C.ar      1 <0>        -0.1303
      3 C3          3.4743   -2.5341    0.0933 C.ar      1 <0>        -0.0248
      4 C4          4.4549   -3.5140    0.2132 C.ar      1 <0>        -0.1760
      5 C5          4.0955   -4.8391    0.3266 C.ar      1 <0>        -0.0069
      6 C6          2.7477   -5.1982    0.3211 C.ar      1 <0>        -0.1197
      7 C7          2.3589   -6.6239    0.4426 C.ar      1 <0>         0.1203
      8 C8          3.3301   -7.6262    0.5579 C.ar      1 <0>        -0.1611
      9 C9          2.9298   -8.9392    0.6735 C.ar      1 <0>         0.1556
     10 N1          1.6497   -9.2628    0.6667 N.ar      1 <0>        -0.5194
     11 C10         0.6971   -8.3492    0.5547 C.ar      1 <0>         0.3687
     12 C11         1.0162   -7.0024    0.4391 C.ar      1 <0>        -0.1634
     13 N2         -0.6365   -8.7426    0.5534 N.pl3     1 <0>        -0.4693
     14 C12        -1.3902   -8.0512    1.6070 C.3       1 <0>         0.0507
     15 C13        -2.8760   -8.3963    1.4835 C.3       1 <0>        -0.1148
     16 C14        -3.0554   -9.9115    1.6122 C.3       1 <0>        -0.0947
     17 C15        -2.2221  -10.6096    0.5338 C.3       1 <0>        -0.1115
     18 C16        -0.7553  -10.2003    0.6849 C.3       1 <0>         0.0183
     19 C17        -4.5315  -10.2703    1.4297 C.3       1 <0>         0.0893
     20 O1         -5.2932   -9.7139    2.5032 O.3       1 <0>        -0.6051
     21 C18         5.9109   -3.1255    0.2185 C.3       1 <0>         0.5066
     22 F1          6.6995   -4.2737    0.3486 F         1 <0>        -0.1733
     23 F2          6.2251   -2.4776   -0.9810 F         1 <0>        -0.1632
     24 F3          6.1600   -2.2645    1.2927 F         1 <0>        -0.1619
     25 S1          3.9363   -0.8399   -0.0510 S.3       1 <0>         0.0816
     26 C19         2.4022    0.0256   -0.0059 C.ar      1 <0>        -0.1737
     27 C20         1.8273    0.3582    1.2143 C.ar      1 <0>        -0.0537
     28 C21         0.6243    1.0358    1.2497 C.ar      1 <0>        -0.1216
     29 C22        -0.0135    1.3863    0.0688 C.ar      1 <0>         0.0945
     30 C23         0.5604    1.0576   -1.1538 C.ar      1 <0>         0.0444
     31 C24         1.7672    0.3763   -1.1897 C.ar      1 <0>        -0.0529
     32 O2         -0.0466    1.4007   -2.3229 O.3       1 <0>        -0.3023
     33 C25        -1.4330    1.7502   -2.2503 C.3       1 <0>         0.0167
     34 C26        -1.6249    2.7136   -1.0713 C.3       1 <0>         0.0148
     35 O3         -1.2036    2.0468    0.1242 O.3       1 <0>        -0.2994
     36 H1          0.7223   -4.4910    0.1968 H         1 <0>         0.1426
     37 H2          1.3697   -2.1275    0.0040 H         1 <0>         0.1472
     38 H3          4.8569   -5.5994    0.4192 H         1 <0>         0.1527
     39 H4          4.3799   -7.3724    0.5602 H         1 <0>         0.1816
     40 H5          3.6743   -9.7160    0.7672 H         1 <0>         0.2084
     41 H6          0.2372   -6.2600    0.3476 H         1 <0>         0.1797
     42 H7         -1.0206   -8.3712    2.5924 H         1 <0>         0.0696
     43 H8         -1.2566   -6.9645    1.5005 H         1 <0>         0.1028
     44 H9         -3.4377   -7.8896    2.2821 H         1 <0>         0.0983
     45 H10        -3.2497   -8.0629    0.5041 H         1 <0>         0.0822
     46 H11        -2.7233  -10.2400    2.6081 H         1 <0>         0.0826
     47 H12        -2.3140  -11.6998    0.6479 H         1 <0>         0.0932
     48 H13        -2.5868  -10.3130   -0.4607 H         1 <0>         0.0884
     49 H14        -0.1563  -10.6891   -0.0976 H         1 <0>         0.0979
     50 H15        -0.3887  -10.5103    1.6746 H         1 <0>         0.0722
     51 H16        -4.8925   -9.8624    0.4740 H         1 <0>         0.0460
     52 H17        -4.6454  -11.3644    1.4278 H         1 <0>         0.0467
     53 H18        -6.3817   -9.8678    2.5428 H         1 <0>         0.4202
     54 H19         2.3214    0.0870    2.1355 H         1 <0>         0.1456
     55 H20         0.1789    1.2933    2.1993 H         1 <0>         0.1480
     56 H21         2.2134    0.1180   -2.1387 H         1 <0>         0.1481
     57 H22        -1.7382    2.2363   -3.1887 H         1 <0>         0.1316
     58 H23        -2.0328    0.8410   -2.0965 H         1 <0>         0.0818
     59 H24        -1.0191    3.6172   -1.2338 H         1 <0>         0.0870
     60 H25        -2.6862    2.9926   -0.9947 H         1 <0>         0.1328
     61 H26         1.3484  -10.3170    0.7557 H         1 <0>         0.4748
@<TRIPOS>BOND
     1    1    6 ar
     2    1    2 ar
     3    1   36 1
     4    2    3 ar
     5    2   37 1
     6    3    4 ar
     7    3   25 1
     8    4    5 ar
     9    4   21 1
    10    5    6 ar
    11    5   38 1
    12    6    7 1
    13    7   12 ar
    14    7    8 ar
    15    8    9 ar
    16    8   39 1
    17    9   10 ar
    18    9   40 1
    19   10   11 ar
    20   10   61 1
    21   11   12 ar
    22   11   13 1
    23   12   41 1
    24   13   18 1
    25   13   14 1
    26   14   15 1
    27   14   42 1
    28   14   43 1
    29   15   16 1
    30   15   44 1
    31   15   45 1
    32   16   17 1
    33   16   19 1
    34   16   46 1
    35   17   18 1
    36   17   47 1
    37   17   48 1
    38   18   49 1
    39   18   50 1
    40   19   20 1
    41   19   51 1
    42   19   52 1
    43   20   53 1
    44   21   22 1
    45   21   23 1
    46   21   24 1
    47   25   26 1
    48   26   31 ar
    49   26   27 ar
    50   27   28 ar
    51   27   54 1
    52   28   29 ar
    53   28   55 1
    54   29   35 1
    55   29   30 ar
    56   30   31 ar
    57   30   32 1
    58   31   56 1
    59   32   33 1
    60   33   34 1
    61   33   57 1
    62   33   58 1
    63   34   35 1
    64   34   59 1
    65   34   60 1
