@<TRIPOS>MOLECULE
ZINC44255386
   30    31     0     0     0
SMALL
USER_CHARGES

@<TRIPOS>ATOM
      1 C1         -0.0162    1.3451    0.0094 C.2       1 <0>        -0.1655
      2 C2          1.3218    1.7855   -0.0010 C.2       1 <0>        -0.1808
      3 C3          2.1083    0.6892   -0.0144 C.2       1 <0>        -0.0034
      4 N1          1.3038   -0.4128   -0.0126 N.pl3     1 <0>        -0.4124
      5 C4          0.0021   -0.0041    0.0020 C.2       1 <0>        -0.0388
      6 C5          1.7440   -1.7504   -0.0244 C.2       1 <0>         0.1896
      7 C6          2.6881   -2.1741   -0.9464 C.2       1 <0>        -0.1826
      8 C7          3.0885   -3.4685   -0.9287 C.2       1 <0>        -0.0893
      9 S1          2.1249   -4.1383    0.4164 S.3       1 <0>         0.1069
     10 C8          1.2545   -2.6478    0.8720 C.2       1 <0>        -0.2874
     11 C9          0.2389   -2.4389    1.9657 C.3       1 <0>         0.1549
     12 H1         -0.2833   -1.4963    1.8014 H         1 <0>         0.1671
     13 C10         0.9491   -2.3991    3.3203 C.3       1 <0>        -0.1691
     14 C11        -0.0480   -2.0683    4.4007 C.2       1 <0>         0.5156
     15 O1         -1.2121   -1.8826    4.1154 O.2       1 <0>        -0.5557
     16 N2          0.3538   -1.9787    5.6841 N.am      1 <0>        -0.8305
     17 N3         -0.7291   -3.5438    1.9526 N.4       1 <0>        -0.6347
     18 H2         -0.8953    1.9722    0.0252 H         1 <0>         0.1476
     19 H3          1.6567    2.8123    0.0013 H         1 <0>         0.1484
     20 H4          3.1882    0.6847   -0.0250 H         1 <0>         0.1693
     21 H5         -0.8641   -0.6491    0.0071 H         1 <0>         0.1607
     22 H6          3.0981   -1.4832   -1.6681 H         1 <0>         0.1602
     23 H7          3.8052   -3.9666   -1.5648 H         1 <0>         0.2115
     24 H8          1.3969   -3.3716    3.5245 H         1 <0>         0.1259
     25 H9          1.7286   -1.6374    3.2996 H         1 <0>         0.1464
     26 H10         1.2848   -2.1271    5.9123 H         1 <0>         0.4130
     27 H11        -0.2880   -1.7658    6.3795 H         1 <0>         0.4182
     28 H12        -1.4090   -3.4039    2.6849 H         1 <0>         0.4468
     29 H13        -1.1974   -3.5700    1.0593 H         1 <0>         0.4401
     30 H14        -0.2457   -4.4163    2.1047 H         1 <0>         0.4282
@<TRIPOS>BOND
     1    1    5 2
     2    1    2 1
     3    1   18 1
     4    2    3 2
     5    2   19 1
     6    3    4 1
     7    3   20 1
     8    4    5 1
     9    4    6 1
    10    5   21 1
    11    6   10 2
    12    6    7 1
    13    7    8 2
    14    7   22 1
    15    8    9 1
    16    8   23 1
    17    9   10 1
    18   10   11 1
    19   11   12 1
    20   11   13 1
    21   11   17 1
    22   13   14 1
    23   13   24 1
    24   13   25 1
    25   14   15 2
    26   14   16 am
    27   16   26 1
    28   16   27 1
    29   17   28 1
    30   17   29 1
    31   17   30 1
