@<TRIPOS>MOLECULE
ZINC40879830
   31    32     0     0     0
SMALL
USER_CHARGES

@<TRIPOS>ATOM
      1 C1         -0.0184    1.5028    0.0103 C.3       1 <0>        -0.0732
      2 C2          0.0021   -0.0041    0.0020 C.2       1 <0>        -0.2287
      3 C3          0.0086   -0.8207   -1.1345 C.2       1 <0>         0.0943
      4 N1          0.0276   -2.0694   -0.7447 N.2       1 <0>        -0.2648
      5 N2          0.0339   -2.0918    0.6560 N.pl3     1 <0>        -0.3297
      6 C4          0.0233   -0.8053    1.0919 C.2       1 <0>         0.1059
      7 C5          0.0303   -0.3526    2.5292 C.3       1 <0>        -0.0955
      8 C6          0.0533   -3.2347    1.4617 C.ar      1 <0>         0.3956
      9 C7          0.0745   -4.4935    0.8713 C.ar      1 <0>        -0.0990
     10 C8          0.0936   -5.6169    1.6815 C.ar      1 <0>        -0.0231
     11 C9          0.0906   -5.4401    3.0580 C.ar      1 <0>        -0.1527
     12 C10         0.0690   -4.1595    3.5751 C.ar      1 <0>         0.1577
     13 N3          0.0566   -3.1082    2.7786 N.ar      1 <0>        -0.4934
     14 C11         0.1104   -6.6328    3.9789 C.3       1 <0>         0.1247
     15 O1          1.4637   -6.9875    4.2700 O.3       1 <0>        -0.5674
     16 Cl1         0.0766   -4.6549   -0.8572 Cl        1 <0>        -0.0101
     17 C12        -0.0047   -0.3431   -2.5637 C.3       1 <0>        -0.0750
     18 H1          1.0042    1.8801    0.0026 H         1 <0>         0.0646
     19 H2         -0.5455    1.8639   -0.8728 H         1 <0>         0.0670
     20 H3         -0.5286    1.8543    0.9071 H         1 <0>         0.0638
     21 H4         -0.9955   -0.2578    2.8853 H         1 <0>         0.0794
     22 H5          0.5601   -1.0851    3.1383 H         1 <0>         0.0967
     23 H6          0.5315    0.6124    2.6038 H         1 <0>         0.0795
     24 H7          0.1099   -6.6076    1.2518 H         1 <0>         0.1546
     25 H8          0.0667   -4.0170    4.6456 H         1 <0>         0.1752
     26 H9         -0.4076   -6.3851    4.9054 H         1 <0>         0.0652
     27 H10        -0.3897   -7.4726    3.4965 H         1 <0>         0.0622
     28 H11         1.5527   -7.7492    4.8591 H         1 <0>         0.3868
     29 H12         1.0197   -0.2133   -2.9129 H         1 <0>         0.0820
     30 H13        -0.5109   -1.0792   -3.1881 H         1 <0>         0.0758
     31 H14        -0.5323    0.6088   -2.6238 H         1 <0>         0.0819
@<TRIPOS>BOND
     1    1    2 1
     2    1   18 1
     3    1   19 1
     4    1   20 1
     5    2    6 2
     6    2    3 1
     7    3    4 2
     8    3   17 1
     9    4    5 1
    10    5    6 1
    11    5    8 1
    12    6    7 1
    13    7   21 1
    14    7   22 1
    15    7   23 1
    16    8   13 ar
    17    8    9 ar
    18    9   10 ar
    19    9   16 1
    20   10   11 ar
    21   10   24 1
    22   11   12 ar
    23   11   14 1
    24   12   13 ar
    25   12   25 1
    26   14   15 1
    27   14   26 1
    28   14   27 1
    29   15   28 1
    30   17   29 1
    31   17   30 1
    32   17   31 1
