@<TRIPOS>MOLECULE
ZINC42233307
   27    28     0     0     0
SMALL
USER_CHARGES

@<TRIPOS>ATOM
      1 C1         -0.0184    1.5028    0.0103 C.3       1 <0>        -0.0794
      2 C2          0.0021   -0.0041    0.0020 C.2       1 <0>         0.0932
      3 C3          0.0080   -0.8203   -1.1406 C.2       1 <0>        -0.2519
      4 C4          0.0275   -2.1172   -0.7298 C.2       1 <0>         0.1235
      5 O1          0.0336   -2.1198    0.6173 O.3       1 <0>        -0.0499
      6 N1          0.0230   -0.7728    1.0538 N.2       1 <0>        -0.3365
      7 C5          0.0392   -3.3072   -1.6030 C.2       1 <0>         0.5502
      8 O2          0.0307   -3.1596   -2.9479 O.3       1 <0>        -0.6802
      9 N2          0.0578   -4.4980   -1.0795 N.2       1 <0>        -1.0327
     10 S1          0.0710   -5.8331   -2.0591 S.o2      1 <0>         2.6540
     11 O3         -1.1775   -5.8515   -2.7374 O.2       1 <0>        -0.9924
     12 O4          1.3129   -5.8179   -2.7495 O.2       1 <0>        -0.9768
     13 C6          0.0952   -7.2487   -1.0102 C.ar      1 <0>        -0.6208
     14 C7         -0.9756   -8.1227   -1.0042 C.ar      1 <0>        -0.0061
     15 C8         -0.9566   -9.2340   -0.1807 C.ar      1 <0>        -0.0582
     16 C9          0.1343   -9.4707    0.6370 C.ar      1 <0>        -0.0575
     17 C10         1.2048   -8.5970    0.6310 C.ar      1 <0>        -0.1236
     18 C11         1.1883   -7.4883   -0.1970 C.ar      1 <0>         0.0629
     19 Cl1         2.5362   -6.3945   -0.2099 Cl        1 <0>        -0.0224
     20 Cl2        -2.3017  -10.3315   -0.1727 Cl        1 <0>        -0.0627
     21 H1          1.0042    1.8801    0.0026 H         1 <0>         0.0852
     22 H2         -0.5455    1.8639   -0.8728 H         1 <0>         0.0853
     23 H3         -0.5286    1.8543    0.9071 H         1 <0>         0.0775
     24 H4         -0.0016   -0.4787   -2.1651 H         1 <0>         0.1645
     25 H5         -1.8272   -7.9378   -1.6421 H         1 <0>         0.1593
     26 H6          0.1490  -10.3382    1.2802 H         1 <0>         0.1464
     27 H7          2.0560   -8.7815    1.2695 H         1 <0>         0.1491
@<TRIPOS>BOND
     1    1    2 1
     2    1   21 1
     3    1   22 1
     4    1   23 1
     5    2    6 2
     6    2    3 1
     7    3    4 2
     8    3   24 1
     9    4    5 1
    10    4    7 1
    11    5    6 1
    12    7    8 1
    13    7    9 2
    14    9   10 1
    15   10   11 2
    16   10   12 2
    17   10   13 1
    18   13   18 ar
    19   13   14 ar
    20   14   15 ar
    21   14   25 1
    22   15   16 ar
    23   15   20 1
    24   16   17 ar
    25   16   26 1
    26   17   18 ar
    27   17   27 1
    28   18   19 1
