@<TRIPOS>MOLECULE
ZINC09450444
   46    48     0     0     0
SMALL
USER_CHARGES
N-(1-cyanocyclopentyl)-2-(2-ethyl-7-thia-3-azabicyclo[4.3.0]nona-8,10-dien-3-yl)-acetamide
@<TRIPOS>ATOM
      1 C1          3.4431   -0.1405    2.3766 C.3       1 <0>        -0.1727
      2 C2          3.9514   -0.5651    0.9974 C.3       1 <0>        -0.1476
      3 C3          3.6967    0.5593   -0.0085 C.3       1 <0>         0.1060
      4 H1          4.0752    0.2695   -0.9887 H         1 <0>         0.1517
      5 C4          2.1989    0.8358   -0.0991 C.2       1 <0>        -0.1482
      6 C5          1.2254   -0.1601   -0.1251 C.2       1 <0>        -0.1505
      7 C6         -0.0836    0.1749   -0.2044 C.2       1 <0>        -0.1518
      8 S1         -0.0056    1.9598   -0.2479 S.3       1 <0>         0.1411
      9 C7          1.7549    2.1226   -0.1581 C.2       1 <0>        -0.1876
     10 C8          2.5954    3.3576   -0.1480 C.3       1 <0>        -0.0605
     11 C9          4.0505    2.9360   -0.4140 C.3       1 <0>         0.0057
     12 C10         5.8259    1.5813    0.5231 C.3       1 <0>        -0.0351
     13 C11         6.4392    2.6826    1.3489 C.2       1 <0>         0.5006
     14 O1          5.7356    3.5505    1.8207 O.2       1 <0>        -0.5111
     15 N1          7.7697    2.7032    1.5630 N.am      1 <0>        -0.6945
     16 C12         8.3660    3.7738    2.3657 C.3       1 <0>         0.2762
     17 C13         8.1427    5.1367    1.6782 C.3       1 <0>        -0.1188
     18 C14         9.4506    5.9196    1.9533 C.3       1 <0>        -0.1299
     19 C15        10.5377    4.8232    1.8303 C.3       1 <0>        -0.1243
     20 C16         9.8888    3.5745    2.4624 C.3       1 <0>        -0.1235
     21 C17         7.7723    3.7841    3.7126 C.1       1 <0>         0.1899
     22 N2          7.3141    3.7920    4.7521 N.1       1 <0>        -0.3857
     23 H2          3.9030    0.8070    2.6574 H         1 <0>         0.0443
     24 H3          2.3599   -0.0231    2.3443 H         1 <0>         0.0781
     25 H4          3.7042   -0.9028    3.1106 H         1 <0>         0.0865
     26 H5          3.4256   -1.4647    0.6775 H         1 <0>         0.1176
     27 H6          5.0208   -0.7691    1.0512 H         1 <0>         0.0911
     28 H7          1.5151   -1.1996   -0.0817 H         1 <0>         0.1434
     29 H8         -0.9501   -0.4691   -0.2343 H         1 <0>         0.1995
     30 H9          2.5239    3.8451    0.8243 H         1 <0>         0.1130
     31 H10         2.2599    4.0402   -0.9288 H         1 <0>         0.1297
     32 H11         4.7195    3.7636   -0.1783 H         1 <0>         0.1433
     33 H12         4.1646    2.6584   -1.4619 H         1 <0>         0.1370
     34 H13         6.0322    0.6186    0.9908 H         1 <0>         0.1632
     35 H14         6.2537    1.5974   -0.4793 H         1 <0>         0.1695
     36 H15         8.3325    2.0090    1.1856 H         1 <0>         0.4200
     37 H16         7.9959    5.0038    0.6064 H         1 <0>         0.0896
     38 H17         7.2897    5.6516    2.1201 H         1 <0>         0.0865
     39 H18         9.4425    6.3447    2.9569 H         1 <0>         0.0763
     40 H19         9.5999    6.6974    1.2044 H         1 <0>         0.0858
     41 H20        11.4324    5.1094    2.3832 H         1 <0>         0.0839
     42 H21        10.7776    4.6396    0.7830 H         1 <0>         0.0796
     43 H22        10.1882    3.4862    3.5067 H         1 <0>         0.0912
     44 H23        10.1841    2.6812    1.9120 H         1 <0>         0.0927
     45 N3          4.3658    1.7909    0.4733 N.4       1 <0>        -0.3855
     46 H24         4.0273    2.0027    1.4192 H         1 <0>         0.4344
@<TRIPOS>BOND
     1    1    2 1
     2    1   23 1
     3    1   24 1
     4    1   25 1
     5    2    3 1
     6    2   26 1
     7    2   27 1
     8    3    4 1
     9    3    5 1
    10    3   45 1
    11    5    9 2
    12    5    6 1
    13    6    7 2
    14    6   28 1
    15    7    8 1
    16    7   29 1
    17    8    9 1
    18    9   10 1
    19   10   11 1
    20   10   30 1
    21   10   31 1
    22   11   32 1
    23   11   33 1
    24   11   45 1
    25   12   13 1
    26   12   34 1
    27   12   35 1
    28   12   45 1
    29   13   14 2
    30   13   15 am
    31   15   16 1
    32   15   36 1
    33   16   20 1
    34   16   17 1
    35   16   21 1
    36   17   18 1
    37   17   37 1
    38   17   38 1
    39   18   19 1
    40   18   39 1
    41   18   40 1
    42   19   20 1
    43   19   41 1
    44   19   42 1
    45   20   43 1
    46   20   44 1
    47   21   22 3
    48   45   46 1
