@<TRIPOS>MOLECULE
ZINC00943971
   49    51     0     0     0
SMALL
USER_CHARGES
2-(2,5-dichlorophenoxy)-N-[4-[(2,6-dimethylpyrimidin-4-yl)sulfamoyl]phenyl]-acetamide
@<TRIPOS>ATOM
      1 C1          3.7505    1.1886   -0.4657 C.3       1 <0>        -0.1093
      2 C2          2.3412    0.6646   -0.3645 C.ar      1 <0>         0.2085
      3 C3          1.2764    1.5383   -0.2610 C.ar      1 <0>        -0.2643
      4 C4         -0.0111    1.0059   -0.1696 C.ar      1 <0>         0.4320
      5 N1         -0.1639   -0.3151   -0.1860 N.ar      1 <0>        -0.5655
      6 C5          0.8808   -1.1116   -0.2866 C.ar      1 <0>         0.3704
      7 N2          2.1084   -0.6402   -0.3741 N.ar      1 <0>        -0.5391
      8 C6          0.6660   -2.6031   -0.3017 C.3       1 <0>        -0.0898
      9 N3         -1.1123    1.8406   -0.0693 N.pl3     1 <0>        -1.0274
     10 S1         -2.6340    1.1952    0.0314 S.o2      1 <0>         2.6896
     11 O1         -3.5325    2.2898    0.1491 O.2       1 <0>        -0.9461
     12 O2         -2.7371    0.2336   -1.0098 O.2       1 <0>        -0.9224
     13 C7         -2.7230    0.3052    1.5495 C.ar      1 <0>        -0.6886
     14 C8         -2.3806   -1.0341    1.5851 C.ar      1 <0>         0.0260
     15 C9         -2.4447   -1.7333    2.7745 C.ar      1 <0>        -0.1715
     16 C10        -2.8632   -1.0925    3.9332 C.ar      1 <0>         0.2095
     17 C11        -3.2114    0.2512    3.8930 C.ar      1 <0>        -0.1481
     18 C12        -3.1406    0.9460    2.7015 C.ar      1 <0>         0.0019
     19 N4         -2.9334   -1.7992    5.1389 N.am      1 <0>        -0.6732
     20 C13        -3.8846   -1.4950    6.0439 C.2       1 <0>         0.5167
     21 O3         -4.7377   -0.6758    5.7750 O.2       1 <0>        -0.4782
     22 C14        -3.8883   -2.1725    7.3900 C.3       1 <0>         0.0387
     23 O4         -4.9855   -1.6858    8.1653 O.3       1 <0>        -0.2719
     24 C15        -5.1337   -2.1990    9.4152 C.ar      1 <0>         0.1499
     25 C16        -4.2449   -3.1553    9.8832 C.ar      1 <0>        -0.1942
     26 C17        -4.3952   -3.6726   11.1565 C.ar      1 <0>         0.0076
     27 C18        -5.4371   -3.2440   11.9603 C.ar      1 <0>        -0.1319
     28 C19        -6.3272   -2.2947   11.4940 C.ar      1 <0>        -0.0570
     29 C20        -6.1782   -1.7709   10.2232 C.ar      1 <0>        -0.0629
     30 Cl1        -7.2962   -0.5785    9.6386 Cl        1 <0>        -0.0373
     31 Cl2        -3.2796   -4.8653   11.7454 Cl        1 <0>        -0.0516
     32 H1          4.0085    1.3371   -1.5143 H         1 <0>         0.0896
     33 H2          3.8241    2.1381    0.0645 H         1 <0>         0.0826
     34 H3          4.4383    0.4696   -0.0206 H         1 <0>         0.0860
     35 H4          1.4358    2.6064   -0.2506 H         1 <0>         0.1513
     36 H5          0.5324   -2.9406   -1.3295 H         1 <0>         0.0937
     37 H6          1.5331   -3.0995    0.1339 H         1 <0>         0.0909
     38 H7         -0.2230   -2.8481    0.2796 H         1 <0>         0.0866
     39 H8         -0.9920    2.8030   -0.0581 H         1 <0>         0.4386
     40 H9         -2.0591   -1.5329    0.6828 H         1 <0>         0.1575
     41 H10        -2.1732   -2.7783    2.8025 H         1 <0>         0.1386
     42 H11        -3.5369    0.7525    4.7925 H         1 <0>         0.1448
     43 H12        -3.4113    1.9911    2.6695 H         1 <0>         0.1442
     44 H13        -2.2975   -2.5081    5.3233 H         1 <0>         0.4174
     45 H14        -3.9886   -3.2494    7.2544 H         1 <0>         0.1037
     46 H15        -2.9536   -1.9570    7.9078 H         1 <0>         0.1046
     47 H16        -3.4341   -3.4931    9.2548 H         1 <0>         0.1474
     48 H17        -5.5551   -3.6520   12.9533 H         1 <0>         0.1479
     49 H18        -7.1399   -1.9623   12.1228 H         1 <0>         0.1537
@<TRIPOS>BOND
     1    1    2 1
     2    1   32 1
     3    1   33 1
     4    1   34 1
     5    2    7 ar
     6    2    3 ar
     7    3    4 ar
     8    3   35 1
     9    4    5 ar
    10    4    9 1
    11    5    6 ar
    12    6    7 ar
    13    6    8 1
    14    8   36 1
    15    8   37 1
    16    8   38 1
    17    9   10 1
    18    9   39 1
    19   10   11 2
    20   10   12 2
    21   10   13 1
    22   13   18 ar
    23   13   14 ar
    24   14   15 ar
    25   14   40 1
    26   15   16 ar
    27   15   41 1
    28   16   17 ar
    29   16   19 1
    30   17   18 ar
    31   17   42 1
    32   18   43 1
    33   19   20 am
    34   19   44 1
    35   20   21 2
    36   20   22 1
    37   22   23 1
    38   22   45 1
    39   22   46 1
    40   23   24 1
    41   24   29 ar
    42   24   25 ar
    43   25   26 ar
    44   25   47 1
    45   26   27 ar
    46   26   31 1
    47   27   28 ar
    48   27   48 1
    49   28   29 ar
    50   28   49 1
    51   29   30 1
