@<TRIPOS>MOLECULE
ZINC15674548
   53    56     0     0     0
SMALL
USER_CHARGES
(3R,5S)-1-[[5-(hydroxymethyl)-2-furyl]methyl]-5-[3-(p-tolylsulfonylmethyl)-1,2,4-oxadiazol-5-yl]pyrrolidin-3-ol
@<TRIPOS>ATOM
      1 C1        -10.8669    3.8334   -8.0432 C.3       1 <0>        -0.1297
      2 C2         -9.5445    3.6251   -7.3512 C.ar      1 <0>        -0.0246
      3 C3         -8.6510    4.6738   -7.2378 C.ar      1 <0>        -0.1409
      4 C4         -7.4382    4.4829   -6.6026 C.ar      1 <0>        -0.0177
      5 C5         -7.1186    3.2432   -6.0812 C.ar      1 <0>        -0.6680
      6 C6         -8.0097    2.1930   -6.1996 C.ar      1 <0>        -0.0171
      7 C7         -9.2247    2.3853   -6.8302 C.ar      1 <0>        -0.1416
      8 S1         -5.5725    2.9997   -5.2720 S.o2      1 <0>         2.5014
      9 O1         -4.7080    3.9731   -5.8414 O.2       1 <0>        -0.9190
     10 O2         -5.2998    1.6131   -5.4207 O.2       1 <0>        -0.9163
     11 C8         -5.8916    3.3903   -3.5295 C.3       1 <0>        -0.5252
     12 C9         -4.6235    3.2140   -2.7347 C.2       1 <0>         0.1602
     13 N1         -4.2108    2.0832   -2.1348 N.2       1 <0>        -0.4619
     14 C10        -3.0699    2.3835   -1.5623 C.2       1 <0>         0.1953
     15 O3         -2.8246    3.6685   -1.8354 O.3       1 <0>         0.1164
     16 N2         -3.7255    4.1252   -2.5072 N.2       1 <0>        -0.3542
     17 C11        -2.1986    1.4551   -0.7560 C.3       1 <0>         0.1536
     18 H1         -2.5641    0.4364   -0.9528 H         1 <0>         0.1147
     19 C12        -2.2232    1.8500    0.7362 C.3       1 <0>        -0.1057
     20 C13        -0.7824    1.6071    1.2405 C.3       1 <0>         0.1168
     21 H2         -0.3207    2.4805    1.7242 H         1 <0>         0.0761
     22 C14        -0.0127    1.0858    0.0080 C.3       1 <0>         0.0037
     23 N3         -0.7759    1.6001   -1.1582 N.3       1 <0>        -0.4933
     24 C15        -0.4871    0.8133   -2.3647 C.3       1 <0>         0.1144
     25 C16         0.9246    1.0859   -2.8162 C.2       1 <0>         0.0052
     26 C17         2.0198    0.4094   -2.4260 C.2       1 <0>        -0.2000
     27 C18         3.1213    0.9941   -3.0920 C.2       1 <0>        -0.1857
     28 C19         2.6344    1.9983   -3.8430 C.2       1 <0>        -0.0109
     29 O4          1.3033    2.0492   -3.6720 O.3       1 <0>        -0.1599
     30 C20         3.4450    2.9110   -4.7267 C.3       1 <0>         0.1644
     31 O5          3.5358    2.3482   -6.0371 O.3       1 <0>        -0.5968
     32 O6         -0.7767    0.6268    2.2803 O.3       1 <0>        -0.6025
     33 H3        -10.9402    4.8754   -8.3879 H         1 <0>         0.0728
     34 H4        -11.6860    3.6213   -7.3403 H         1 <0>         0.0801
     35 H5        -10.9397    3.1556   -8.9065 H         1 <0>         0.0804
     36 H6         -8.9007    5.6424   -7.6451 H         1 <0>         0.1361
     37 H7         -6.7401    5.3022   -6.5139 H         1 <0>         0.1440
     38 H8         -7.7582    1.2233   -5.7961 H         1 <0>         0.1448
     39 H9         -9.9226    1.5659   -6.9191 H         1 <0>         0.1362
     40 H10        -6.2359    4.4315   -3.4443 H         1 <0>         0.1644
     41 H11        -6.6665    2.7147   -3.1382 H         1 <0>         0.1692
     42 H12        -2.5130    2.9069    0.8310 H         1 <0>         0.0934
     43 H13        -2.9508    1.2210    1.2700 H         1 <0>         0.1028
     44 H14         1.0161    1.4747    0.0267 H         1 <0>         0.0984
     45 H15         0.0106   -0.0138    0.0283 H         1 <0>         0.0702
     46 H16        -0.5998   -0.2575   -2.1398 H         1 <0>         0.0857
     47 H17        -1.1886    1.0960   -3.1635 H         1 <0>         0.0959
     48 H18         2.0513   -0.4224   -1.7379 H         1 <0>         0.1493
     49 H19         4.1558    0.6948   -3.0100 H         1 <0>         0.1503
     50 H20         2.9568    3.8951   -4.7833 H         1 <0>         0.0625
     51 H21         4.4550    3.0264   -4.3064 H         1 <0>         0.0783
     52 H22         4.0928    2.8762   -6.8251 H         1 <0>         0.4195
     53 H23         0.1716    0.3331    2.7541 H         1 <0>         0.4146
@<TRIPOS>BOND
     1    1    2 1
     2    1   33 1
     3    1   34 1
     4    1   35 1
     5    2    7 ar
     6    2    3 ar
     7    3    4 ar
     8    3   36 1
     9    4    5 ar
    10    4   37 1
    11    5    6 ar
    12    5    8 1
    13    6    7 ar
    14    6   38 1
    15    7   39 1
    16    8    9 2
    17    8   10 2
    18    8   11 1
    19   11   12 1
    20   11   40 1
    21   11   41 1
    22   12   16 2
    23   12   13 1
    24   13   14 2
    25   14   15 1
    26   14   17 1
    27   15   16 1
    28   17   18 1
    29   17   23 1
    30   17   19 1
    31   19   20 1
    32   19   42 1
    33   19   43 1
    34   20   21 1
    35   20   22 1
    36   20   32 1
    37   22   23 1
    38   22   44 1
    39   22   45 1
    40   23   24 1
    41   24   25 1
    42   24   46 1
    43   24   47 1
    44   25   29 1
    45   25   26 2
    46   26   27 1
    47   26   48 1
    48   27   28 2
    49   27   49 1
    50   28   29 1
    51   28   30 1
    52   30   31 1
    53   30   50 1
    54   30   51 1
    55   31   52 1
    56   32   53 1
