@<TRIPOS>MOLECULE
ZINC06764320
   48    51     0     0     0
SMALL
USER_CHARGES
N-[1-cyclopentyl-5-oxo-2-phenyl-4-(trifluoromethyl)imidazol-4-yl]furan-2-carboxamide
@<TRIPOS>ATOM
      1 C1          2.3951    0.2609   -0.8485 C.ar      1 <0>        -0.0416
      2 C2          1.4490   -0.2945   -0.0057 C.ar      1 <0>        -0.1091
      3 C3          0.2434    0.3446    0.1993 C.ar      1 <0>        -0.0518
      4 C4         -0.0206    1.5528   -0.4458 C.ar      1 <0>        -0.1485
      5 C5          0.9372    2.1074   -1.2948 C.ar      1 <0>        -0.0573
      6 C6          2.1392    1.4589   -1.4912 C.ar      1 <0>        -0.1095
      7 C7         -1.3144    2.2406   -0.2351 C.cat     1 <0>         0.6082
      8 C8         -3.4947    2.6373    0.0594 C.3       1 <0>         0.2849
      9 C9         -2.7327    3.9477    0.0732 C.2       1 <0>         0.5074
     10 O1         -3.1863    5.0629    0.2176 O.2       1 <0>        -0.3089
     11 N1         -1.4396    3.6043   -0.1047 N.am      1 <0>        -0.5240
     12 C10        -0.3242    4.5528   -0.1557 C.3       1 <0>         0.1107
     13 C11        -0.2670    5.3719    1.1503 C.3       1 <0>        -0.1380
     14 C12         0.1545    6.7903    0.6900 C.3       1 <0>        -0.1203
     15 C13        -0.6084    6.9572   -0.6477 C.3       1 <0>        -0.1263
     16 C14        -0.5408    5.5602   -1.2985 C.3       1 <0>        -0.1376
     17 C15        -4.2021    2.4138    1.3975 C.3       1 <0>         0.4587
     18 F1         -3.2720    2.5082    2.4382 F         1 <0>        -0.1587
     19 F2         -5.1938    3.3856    1.5688 F         1 <0>        -0.1161
     20 F3         -4.7875    1.1432    1.4090 F         1 <0>        -0.1511
     21 N2         -4.4610    2.6130   -1.0415 N.am      1 <0>        -0.7178
     22 C16        -5.3851    3.5882   -1.1486 C.2       1 <0>         0.6088
     23 O2         -5.4664    4.4465   -0.2898 O.2       1 <0>        -0.4464
     24 C17        -6.2927    3.6150   -2.3003 C.2       1 <0>        -0.1090
     25 C18        -7.2728    4.5381   -2.5282 C.2       1 <0>        -0.0783
     26 C19        -7.8876    4.1832   -3.7391 C.2       1 <0>        -0.2236
     27 C20        -7.2698    3.0680   -4.1870 C.2       1 <0>         0.0243
     28 O3         -6.3094    2.7287   -3.3174 O.3       1 <0>        -0.1700
     29 H1          3.3376   -0.2428   -1.0051 H         1 <0>         0.1511
     30 H2          1.6547   -1.2300    0.4933 H         1 <0>         0.1537
     31 H3         -0.4941   -0.0895    0.8580 H         1 <0>         0.1434
     32 H4          0.7383    3.0425   -1.7973 H         1 <0>         0.1450
     33 H5          2.8815    1.8873   -2.1482 H         1 <0>         0.1537
     34 H6          0.6141    4.0178   -0.3024 H         1 <0>         0.1362
     35 H7         -1.2474    5.4009    1.6257 H         1 <0>         0.0811
     36 H8          0.4755    4.9543    1.8302 H         1 <0>         0.0928
     37 H9          1.2314    6.8394    0.5292 H         1 <0>         0.0821
     38 H10        -0.1616    7.5437    1.4115 H         1 <0>         0.0866
     39 H11        -0.1149    7.6963   -1.2787 H         1 <0>         0.0848
     40 H12        -1.6443    7.2433   -0.4653 H         1 <0>         0.0785
     41 H13         0.2928    5.5147   -1.9994 H         1 <0>         0.0976
     42 H14        -1.4758    5.3433   -1.8152 H         1 <0>         0.0735
     43 H15        -4.4357    1.8950   -1.6932 H         1 <0>         0.4333
     44 H16        -7.5248    5.3793   -1.8995 H         1 <0>         0.1689
     45 H17        -8.7039    4.7015   -4.2202 H         1 <0>         0.1680
     46 H18        -7.5111    2.5373   -5.0961 H         1 <0>         0.2210
     47 N3         -2.4489    1.6340   -0.1474 N.pl3     1 <0>        -0.6032
     48 H19        -2.5940    0.6196   -0.2116 H         1 <0>         0.4929
@<TRIPOS>BOND
     1    1    6 ar
     2    1    2 ar
     3    1   29 1
     4    2    3 ar
     5    2   30 1
     6    3    4 ar
     7    3   31 1
     8    4    5 ar
     9    4    7 1
    10    5    6 ar
    11    5   32 1
    12    6   33 1
    13    7   11 1
    14    7   47 2
    15    8    9 1
    16    8   17 1
    17    8   21 1
    18    8   47 1
    19    9   10 2
    20    9   11 am
    21   11   12 1
    22   12   16 1
    23   12   13 1
    24   12   34 1
    25   13   14 1
    26   13   35 1
    27   13   36 1
    28   14   15 1
    29   14   37 1
    30   14   38 1
    31   15   16 1
    32   15   39 1
    33   15   40 1
    34   16   41 1
    35   16   42 1
    36   17   18 1
    37   17   19 1
    38   17   20 1
    39   21   22 am
    40   21   43 1
    41   22   23 2
    42   22   24 1
    43   24   28 1
    44   24   25 2
    45   25   26 1
    46   25   44 1
    47   26   27 2
    48   26   45 1
    49   27   28 1
    50   27   46 1
    51   47   48 1
