@<TRIPOS>MOLECULE
ZINC66263277
   47    49     0     0     0
SMALL
USER_CHARGES

@<TRIPOS>ATOM
      1 C1         -0.0187    1.5258    0.0104 C.3       1 <0>        -0.1488
      2 C2          0.0021   -0.0041    0.0020 C.3       1 <0>        -0.0940
      3 C3         -1.4333   -0.5336    0.0129 C.3       1 <0>        -0.1155
      4 C4         -1.4126   -2.0635    0.0045 C.3       1 <0>        -0.1282
      5 C5         -0.6726   -2.5703    1.2440 C.3       1 <0>         0.1477
      6 C6          0.7628   -2.0407    1.2331 C.3       1 <0>        -0.1317
      7 C7          0.7421   -0.5109    1.2415 C.3       1 <0>        -0.1125
      8 N1         -1.3583   -2.0979    2.4493 N.am      1 <0>        -0.7173
      9 C8         -1.2353   -2.7794    3.6055 C.2       1 <0>         0.5006
     10 O1         -0.5569   -3.7839    3.6481 O.2       1 <0>        -0.5229
     11 C9         -1.9406   -2.2934    4.8454 C.3       1 <0>         0.0975
     12 N2         -1.6504   -3.1997    5.9593 N.am      1 <0>        -0.5583
     13 C10        -2.3892   -4.2846    6.2648 C.2       1 <0>         0.5372
     14 O2         -3.3817   -4.6798    5.6916 O.2       1 <0>        -0.4445
     15 C11        -1.7206   -4.9085    7.4737 C.3       1 <0>         0.2167
     16 N3         -0.5752   -4.0192    7.7333 N.am      1 <0>        -0.7109
     17 C12        -0.6159   -3.0557    6.7954 C.2       1 <0>         0.7132
     18 O3          0.1947   -2.1533    6.7181 O.2       1 <0>        -0.5295
     19 C13        -2.6745   -4.9208    8.6699 C.3       1 <0>        -0.1452
     20 C14        -1.2474   -6.3037    7.1568 C.2       1 <0>        -0.1742
     21 C15        -0.1968   -6.9862    7.6733 C.2       1 <0>        -0.1152
     22 C16         0.0523   -8.2714    7.2282 C.2       1 <0>        -0.1437
     23 C17        -0.7629   -8.8105    6.2875 C.2       1 <0>        -0.1188
     24 S1         -1.9302   -7.4886    6.0093 S.3       1 <0>         0.1562
     25 Cl1        -0.6934  -10.3807    5.5505 Cl        1 <0>         0.0231
     26 H1          1.0039    1.9031    0.0027 H         1 <0>         0.0549
     27 H2         -0.5459    1.8868   -0.8726 H         1 <0>         0.0548
     28 H3         -0.5289    1.8773    0.9072 H         1 <0>         0.0539
     29 H4          0.5123   -0.3556   -0.8948 H         1 <0>         0.0714
     30 H5         -1.9435   -0.1821    0.9097 H         1 <0>         0.0596
     31 H6         -1.9605   -0.1726   -0.8702 H         1 <0>         0.0680
     32 H7         -2.4352   -2.4408    0.0122 H         1 <0>         0.0708
     33 H8         -0.9024   -2.4150   -0.8923 H         1 <0>         0.0806
     34 H9         -0.6578   -3.6602    1.2380 H         1 <0>         0.0887
     35 H10         1.2900   -2.4018    2.1162 H         1 <0>         0.0679
     36 H11         1.2730   -2.3923    0.3363 H         1 <0>         0.0727
     37 H12         1.7647   -0.1336    1.2338 H         1 <0>         0.0629
     38 H13         0.2319   -0.1594    2.1383 H         1 <0>         0.0615
     39 H14        -1.9008   -1.2945    2.4152 H         1 <0>         0.4008
     40 H15        -1.5918   -1.2907    5.0924 H         1 <0>         0.1307
     41 H16        -3.0156   -2.2704    4.6664 H         1 <0>         0.1284
     42 H17         0.0819   -4.1119    8.4408 H         1 <0>         0.4433
     43 H18        -3.5634   -5.4999    8.4198 H         1 <0>         0.0903
     44 H19        -2.1759   -5.3724    9.5276 H         1 <0>         0.0880
     45 H20        -2.9637   -3.8987    8.9145 H         1 <0>         0.0802
     46 H21         0.4368   -6.5328    8.4213 H         1 <0>         0.1429
     47 H22         0.8833   -8.8371    7.6231 H         1 <0>         0.1469
@<TRIPOS>BOND
     1    1    2 1
     2    1   26 1
     3    1   27 1
     4    1   28 1
     5    2    7 1
     6    2    3 1
     7    2   29 1
     8    3    4 1
     9    3   30 1
    10    3   31 1
    11    4    5 1
    12    4   32 1
    13    4   33 1
    14    5    6 1
    15    5    8 1
    16    5   34 1
    17    6    7 1
    18    6   35 1
    19    6   36 1
    20    7   37 1
    21    7   38 1
    22    8    9 am
    23    8   39 1
    24    9   10 2
    25    9   11 1
    26   11   12 1
    27   11   40 1
    28   11   41 1
    29   12   17 am
    30   12   13 am
    31   13   14 2
    32   13   15 1
    33   15   16 1
    34   15   19 1
    35   15   20 1
    36   16   17 am
    37   16   42 1
    38   17   18 2
    39   19   43 1
    40   19   44 1
    41   19   45 1
    42   20   24 1
    43   20   21 2
    44   21   22 1
    45   21   46 1
    46   22   23 2
    47   22   47 1
    48   23   24 1
    49   23   25 1
