@<TRIPOS>MOLECULE
ZINC40516454
   26    28     0     0     0
SMALL
USER_CHARGES

@<TRIPOS>ATOM
      1 C1          0.0098    1.3914   -0.4625 C.ar      1 <0>        -0.1132
      2 C2          1.1617    2.1045   -0.3194 C.ar      1 <0>        -0.0639
      3 C3          2.3815    1.4292   -0.1718 C.ar      1 <0>        -0.1027
      4 C4          3.5985    2.1332   -0.0203 C.ar      1 <0>         0.2313
      5 C5          4.7607    1.3953    0.1205 C.ar      1 <0>        -0.1822
      6 C6          4.7007    0.0067    0.1091 C.ar      1 <0>         0.1569
      7 N1          3.5657   -0.6358   -0.0326 N.ar      1 <0>        -0.4717
      8 C7          2.4046    0.0133   -0.1729 C.ar      1 <0>         0.1550
      9 C8          1.1969   -0.6890   -0.3232 C.ar      1 <0>        -0.0886
     10 C9          0.0284   -0.0023   -0.4640 C.ar      1 <0>        -0.0060
     11 Cl1        -1.4599   -0.8767   -0.6486 Cl        1 <0>        -0.0544
     12 N2          3.6267    3.5278   -0.0133 N.pl3     1 <0>        -0.3343
     13 C10         4.4766    4.3176   -0.7297 C.2       1 <0>        -0.0311
     14 C11         4.1755    5.6083   -0.4406 C.2       1 <0>         0.0792
     15 C12         3.1131    5.6078    0.4770 C.2       1 <0>         0.0279
     16 N3          2.7829    4.3664    0.7263 N.2       1 <0>        -0.2605
     17 N4          4.8151    6.7460   -0.9670 N.pl3     1 <0>        -0.8705
     18 H1         -0.9299    1.9124   -0.5716 H         1 <0>         0.1419
     19 H2          1.1355    3.1841   -0.3201 H         1 <0>         0.1446
     20 H3          5.7103    1.8962    0.2383 H         1 <0>         0.1481
     21 H4          5.6139   -0.5591    0.2197 H         1 <0>         0.1734
     22 H5          1.1947   -1.7690   -0.3267 H         1 <0>         0.1521
     23 H6          5.2489    3.9775   -1.4037 H         1 <0>         0.1759
     24 H7          2.6446    6.4835    0.9014 H         1 <0>         0.1919
     25 H8          5.5441    6.6439   -1.5986 H         1 <0>         0.3993
     26 H9          4.5268    7.6323   -0.6981 H         1 <0>         0.4017
@<TRIPOS>BOND
     1    1   10 ar
     2    1    2 ar
     3    1   18 1
     4    2    3 ar
     5    2   19 1
     6    3    8 ar
     7    3    4 ar
     8    4    5 ar
     9    4   12 1
    10    5    6 ar
    11    5   20 1
    12    6    7 ar
    13    6   21 1
    14    7    8 ar
    15    8    9 ar
    16    9   10 ar
    17    9   22 1
    18   10   11 1
    19   12   16 1
    20   12   13 1
    21   13   14 2
    22   13   23 1
    23   14   15 1
    24   14   17 1
    25   15   16 2
    26   15   24 1
    27   17   25 1
    28   17   26 1
