@<TRIPOS>MOLECULE
ZINC41160060
   30    32     0     0     0
SMALL
USER_CHARGES

@<TRIPOS>ATOM
      1 C1         -0.0178    1.4608    0.0101 C.3       1 <0>         0.0904
      2 N1          0.0021   -0.0041    0.0020 N.pl3     1 <0>        -0.3602
      3 C2          0.0078   -0.7920   -1.0936 C.2       1 <0>         0.0970
      4 C3          0.0272   -2.0789   -0.6760 C.2       1 <0>        -0.2924
      5 C4          0.0335   -2.0775    0.7227 C.2       1 <0>         0.0698
      6 N2          0.0246   -0.8342    1.1302 N.2       1 <0>        -0.2801
      7 C5          0.0390   -3.2983   -1.5614 C.3       1 <0>         0.1722
      8 N3          1.4239   -3.6749   -1.8554 N.pl3     1 <0>        -0.6824
      9 C6          1.6882   -4.7757   -2.6584 C.ar      1 <0>         0.5011
     10 C7          3.0340   -5.1375   -2.9339 C.ar      1 <0>        -0.1637
     11 C8          4.2704   -4.5150   -2.4916 C.2       1 <0>        -0.1309
     12 C9          5.4435   -5.0362   -2.8811 C.2       1 <0>        -0.1365
     13 S1          4.9668   -6.4276   -3.8893 S.3       1 <0>         0.1914
     14 C10         3.2070   -6.2702   -3.7594 C.ar      1 <0>        -0.0562
     15 C11         2.1178   -6.9634   -4.2547 C.ar      1 <0>        -0.1080
     16 C12         0.8591   -6.5337   -3.9316 C.ar      1 <0>         0.1296
     17 N4          0.6892   -5.4761   -3.1522 N.ar      1 <0>        -0.5125
     18 H1          1.0048    1.8381    0.0023 H         1 <0>         0.0852
     19 H2         -0.5450    1.8219   -0.8730 H         1 <0>         0.0958
     20 H3         -0.5280    1.8123    0.9069 H         1 <0>         0.0991
     21 H4         -0.0017   -0.4556   -2.1198 H         1 <0>         0.1807
     22 H5          0.0482   -2.9516    1.3568 H         1 <0>         0.1885
     23 H6         -0.4613   -4.1220   -1.0521 H         1 <0>         0.0949
     24 H7         -0.4826   -3.0763   -2.4924 H         1 <0>         0.0911
     25 H8          2.1562   -3.1550   -1.4888 H         1 <0>         0.4356
     26 H9          4.2451   -3.6418   -1.8566 H         1 <0>         0.1526
     27 H10         6.4395   -4.6943   -2.6413 H         1 <0>         0.2114
     28 H11         2.2579   -7.8286   -4.8857 H         1 <0>         0.1829
     29 H12        -0.0020   -7.0642   -4.3104 H         1 <0>         0.2125
     30 H13        -0.2163   -5.2014   -2.9388 H         1 <0>         0.4412
@<TRIPOS>BOND
     1    1    2 1
     2    1   18 1
     3    1   19 1
     4    1   20 1
     5    2    6 1
     6    2    3 1
     7    3    4 2
     8    3   21 1
     9    4    5 1
    10    4    7 1
    11    5    6 2
    12    5   22 1
    13    7    8 1
    14    7   23 1
    15    7   24 1
    16    8    9 1
    17    8   25 1
    18    9   17 ar
    19    9   10 ar
    20   10   14 ar
    21   10   11 1
    22   11   12 2
    23   11   26 1
    24   12   13 1
    25   12   27 1
    26   13   14 1
    27   14   15 ar
    28   15   16 ar
    29   15   28 1
    30   16   17 ar
    31   16   29 1
    32   17   30 1
