@<TRIPOS>MOLECULE
ZINC36006113
   61    65     0     0     0
SMALL
USER_CHARGES

@<TRIPOS>ATOM
      1 C1         -0.0356    1.5025    0.0119 C.3       1 <0>        -0.0853
      2 C2         -0.0122   -0.0043    0.0033 C.2       1 <0>         0.1369
      3 C3         -0.0985   -0.8240   -1.1431 C.ar      1 <0>        -0.3349
      4 C4         -0.2224   -0.5839   -2.5254 C.ar      1 <0>         0.5231
      5 N1         -0.2763   -1.6280   -3.3450 N.ar      1 <0>        -0.5976
      6 C5         -0.2159   -2.8646   -2.8830 C.ar      1 <0>         0.4108
      7 N2         -0.1003   -3.1383   -1.6021 N.ar      1 <0>        -0.5716
      8 C6         -0.0382   -2.1599   -0.7009 C.ar      1 <0>         0.3807
      9 N3          0.0795   -2.1141    0.6592 N.pl3     1 <0>        -0.3298
     10 N4          0.0969   -0.7697    1.0520 N.2       1 <0>        -0.2509
     11 C7          0.1715   -3.2204    1.5132 C.ar      1 <0>         0.1556
     12 C8         -0.5227   -4.3865    1.2186 C.ar      1 <0>        -0.1118
     13 C9         -0.4295   -5.4758    2.0624 C.ar      1 <0>        -0.0994
     14 C10         0.3538   -5.4061    3.1999 C.ar      1 <0>        -0.1206
     15 C11         1.0459   -4.2462    3.4963 C.ar      1 <0>        -0.1034
     16 C12         0.9618   -3.1555    2.6533 C.ar      1 <0>        -0.1133
     17 C13        -0.2827   -4.0070   -3.8636 C.3       1 <0>        -0.0850
     18 N5         -0.2866    0.7052   -3.0166 N.pl3     1 <0>        -0.6909
     19 C14        -0.5321    0.9343   -4.4426 C.3       1 <0>         0.1499
     20 C15         0.7924    0.8662   -5.2055 C.3       1 <0>        -0.1253
     21 C16         1.7436    1.9396   -4.6728 C.3       1 <0>        -0.1260
     22 C17         1.1140    3.3205   -4.8665 C.3       1 <0>         0.1456
     23 C18        -0.2105    3.3887   -4.1035 C.3       1 <0>        -0.1316
     24 C19        -1.1617    2.3153   -4.6362 C.3       1 <0>        -0.1277
     25 N6          2.0248    4.3484   -4.3564 N.am      1 <0>        -0.7232
     26 C20         1.9604    5.6053   -4.8387 C.2       1 <0>         0.5596
     27 O1          1.1465    5.8860   -5.6970 O.2       1 <0>        -0.5193
     28 C21         2.8786    6.6415   -4.3245 C.ar      1 <0>        -0.1781
     29 C22         3.8189    6.3214   -3.3427 C.ar      1 <0>        -0.0587
     30 C23         4.6734    7.2931   -2.8673 C.ar      1 <0>        -0.1388
     31 C24         4.6021    8.5853   -3.3597 C.ar      1 <0>        -0.0612
     32 C25         3.6748    8.9121   -4.3309 C.ar      1 <0>        -0.1641
     33 C26         2.8148    7.9465   -4.8223 C.ar      1 <0>         0.1606
     34 F1          1.9122    8.2648   -5.7758 F         1 <0>        -0.1136
     35 H1          0.9674    1.8826   -0.1820 H         1 <0>         0.0889
     36 H2         -0.7153    1.8597   -0.7618 H         1 <0>         0.0783
     37 H3         -0.3759    1.8551    0.9855 H         1 <0>         0.0904
     38 H4         -1.1351   -4.4413    0.3307 H         1 <0>         0.1347
     39 H5         -0.9691   -6.3830    1.8338 H         1 <0>         0.1331
     40 H6          0.4248   -6.2592    3.8584 H         1 <0>         0.1296
     41 H7          1.6565   -4.1947    4.3857 H         1 <0>         0.1322
     42 H8          1.5064   -2.2516    2.8828 H         1 <0>         0.1312
     43 H9          0.7248   -4.2658   -4.1891 H         1 <0>         0.0897
     44 H10        -0.7427   -4.8710   -3.3840 H         1 <0>         0.0879
     45 H11        -0.8786   -3.7106   -4.7268 H         1 <0>         0.0898
     46 H12        -0.1692    1.4589   -2.4174 H         1 <0>         0.4088
     47 H13        -1.2097    0.1696   -4.8221 H         1 <0>         0.0993
     48 H14         1.2409   -0.1176   -5.0675 H         1 <0>         0.0798
     49 H15         0.6097    1.0366   -6.2664 H         1 <0>         0.0790
     50 H16         1.9263    1.7691   -3.6118 H         1 <0>         0.0656
     51 H17         2.6872    1.8910   -5.2163 H         1 <0>         0.0722
     52 H18         0.9314    3.4910   -5.9274 H         1 <0>         0.0945
     53 H19        -0.0278    3.2182   -3.0426 H         1 <0>         0.0590
     54 H20        -0.6590    4.3725   -4.2415 H         1 <0>         0.0768
     55 H21        -1.3443    2.4857   -5.6972 H         1 <0>         0.0882
     56 H22        -2.1053    2.3638   -4.0927 H         1 <0>         0.0757
     57 H23         2.6742    4.1244   -3.6716 H         1 <0>         0.3983
     58 H24         3.8762    5.3145   -2.9563 H         1 <0>         0.1343
     59 H25         5.4005    7.0458   -2.1080 H         1 <0>         0.1376
     60 H26         5.2743    9.3417   -2.9825 H         1 <0>         0.1399
     61 H27         3.6244    9.9221   -4.7099 H         1 <0>         0.1444
@<TRIPOS>BOND
     1    1    2 1
     2    1   35 1
     3    1   36 1
     4    1   37 1
     5    2   10 2
     6    2    3 1
     7    3    8 ar
     8    3    4 ar
     9    4    5 ar
    10    4   18 1
    11    5    6 ar
    12    6    7 ar
    13    6   17 1
    14    7    8 ar
    15    8    9 1
    16    9   10 1
    17    9   11 1
    18   11   16 ar
    19   11   12 ar
    20   12   13 ar
    21   12   38 1
    22   13   14 ar
    23   13   39 1
    24   14   15 ar
    25   14   40 1
    26   15   16 ar
    27   15   41 1
    28   16   42 1
    29   17   43 1
    30   17   44 1
    31   17   45 1
    32   18   19 1
    33   18   46 1
    34   19   24 1
    35   19   20 1
    36   19   47 1
    37   20   21 1
    38   20   48 1
    39   20   49 1
    40   21   22 1
    41   21   50 1
    42   21   51 1
    43   22   23 1
    44   22   25 1
    45   22   52 1
    46   23   24 1
    47   23   53 1
    48   23   54 1
    49   24   55 1
    50   24   56 1
    51   25   26 am
    52   25   57 1
    53   26   27 2
    54   26   28 1
    55   28   33 ar
    56   28   29 ar
    57   29   30 ar
    58   29   58 1
    59   30   31 ar
    60   30   59 1
    61   31   32 ar
    62   31   60 1
    63   32   33 ar
    64   32   61 1
    65   33   34 1
