@<TRIPOS>MOLECULE
ZINC61095476
   27    27     0     0     0
SMALL
USER_CHARGES

@<TRIPOS>ATOM
      1 C1         -0.0187    1.5258    0.0104 C.3       1 <0>        -0.1689
      2 C2          0.0021   -0.0041    0.0020 C.3       1 <0>         0.1286
      3 H1          0.5123   -0.3556   -0.8948 H         1 <0>         0.1125
      4 C3          0.7309   -0.5033    1.2229 C.2       1 <0>         0.5091
      5 O1          0.1587   -1.2128    2.0229 O.2       1 <0>        -0.5271
      6 N1          2.0187   -0.1613    1.4257 N.am      1 <0>        -0.7283
      7 C4          2.7273   -0.6466    2.6126 C.3       1 <0>         0.0850
      8 N2         -1.3723   -0.5112    0.0124 N.pl3     1 <0>        -0.7140
      9 C5         -2.0763   -0.6477   -1.1881 C.ar      1 <0>         0.2499
     10 C6         -1.4718   -0.3084   -2.3912 C.ar      1 <0>        -0.2285
     11 C7         -2.1697   -0.4446   -3.5779 C.ar      1 <0>         0.1769
     12 C8         -3.4708   -0.9185   -3.5674 C.ar      1 <0>        -0.2251
     13 C9         -4.0770   -1.2574   -2.3695 C.ar      1 <0>         0.1523
     14 C10        -3.3804   -1.1287   -1.1795 C.ar      1 <0>        -0.0212
     15 F1         -3.9696   -1.4650   -0.0112 F         1 <0>        -0.1250
     16 F2         -5.3466   -1.7191   -2.3621 F         1 <0>        -0.1160
     17 F3         -1.5814   -0.1144   -4.7483 F         1 <0>        -0.1230
     18 H2          1.0039    1.9031    0.0027 H         1 <0>         0.0756
     19 H3         -0.5459    1.8868   -0.8726 H         1 <0>         0.0777
     20 H4         -0.5289    1.8773    0.9072 H         1 <0>         0.0700
     21 H5          2.4764    0.4061    0.7859 H         1 <0>         0.4051
     22 H6          2.7421   -1.7365    2.6066 H         1 <0>         0.0630
     23 H7          3.7499   -0.2693    2.6049 H         1 <0>         0.0804
     24 H8          2.2171   -0.2951    3.5094 H         1 <0>         0.0631
     25 H9         -1.7940   -0.7522    0.8520 H         1 <0>         0.4198
     26 H10        -0.4573    0.0620   -2.4005 H         1 <0>         0.1512
     27 H11        -4.0138   -1.0236   -4.4951 H         1 <0>         0.1570
@<TRIPOS>BOND
     1    1    2 1
     2    1   18 1
     3    1   19 1
     4    1   20 1
     5    2    3 1
     6    2    4 1
     7    2    8 1
     8    4    5 2
     9    4    6 am
    10    6    7 1
    11    6   21 1
    12    7   22 1
    13    7   23 1
    14    7   24 1
    15    8    9 1
    16    8   25 1
    17    9   14 ar
    18    9   10 ar
    19   10   11 ar
    20   10   26 1
    21   11   12 ar
    22   11   17 1
    23   12   13 ar
    24   12   27 1
    25   13   14 ar
    26   13   16 1
    27   14   15 1
