@<TRIPOS>MOLECULE
ZINC35783751
   44    45     0     0     0
SMALL
USER_CHARGES

@<TRIPOS>ATOM
      1 C1         -0.0187    1.5258    0.0104 C.3       1 <0>        -0.1459
      2 C2          0.0021   -0.0041    0.0020 C.3       1 <0>         0.0726
      3 H1          0.5121   -0.3563   -0.8946 H         1 <0>         0.0603
      4 C3         -1.4357   -0.5357    0.0154 C.3       1 <0>         0.1146
      5 N1         -1.3891   -1.9954    0.1960 N.pl3     1 <0>        -0.6740
      6 C4         -0.5783   -2.5300    1.3016 C.3       1 <0>         0.1337
      7 H2         -0.4987   -3.6131    1.2081 H         1 <0>         0.0849
      8 C5          0.8176   -1.9012    1.2255 C.3       1 <0>         0.0536
      9 O1          0.6913   -0.4787    1.1611 O.3       1 <0>        -0.3743
     10 C6         -1.2321   -2.1750    2.6385 C.3       1 <0>        -0.1642
     11 C7         -2.0957   -2.8503   -0.6586 C.ar      1 <0>         0.1475
     12 C8         -1.4925   -3.3390   -1.8076 C.ar      1 <0>        -0.0984
     13 C9         -2.1920   -4.1835   -2.6498 C.ar      1 <0>        -0.0719
     14 C10        -3.4929   -4.5432   -2.3503 C.ar      1 <0>        -0.6303
     15 C11        -4.1020   -4.0605   -1.2067 C.ar      1 <0>        -0.0978
     16 C12        -3.4062   -3.2174   -0.3537 C.ar      1 <0>         0.1949
     17 N2         -4.0193   -2.7317    0.8076 N.pl3     1 <0>        -0.8712
     18 S1         -4.3773   -5.6193   -3.4293 S.o2      1 <0>         2.6925
     19 O2         -5.7587   -5.3684   -3.2104 O.2       1 <0>        -0.9540
     20 O3         -3.7742   -5.4958   -4.7101 O.2       1 <0>        -0.9532
     21 N3         -4.0909   -7.1684   -2.9187 N.pl3     1 <0>        -1.0052
     22 C13        -4.9751   -7.7887   -1.9290 C.3       1 <0>         0.0921
     23 C14        -2.9533   -7.9185   -3.4568 C.3       1 <0>         0.0811
     24 H3          1.0039    1.9031    0.0027 H         1 <0>         0.0668
     25 H4         -0.5459    1.8868   -0.8726 H         1 <0>         0.0726
     26 H5         -0.5289    1.8773    0.9072 H         1 <0>         0.0645
     27 H6         -1.9874   -0.0814    0.8384 H         1 <0>         0.0586
     28 H7         -1.9238   -0.2981   -0.9298 H         1 <0>         0.0785
     29 H8          1.3896   -2.1761    2.1117 H         1 <0>         0.1002
     30 H9          1.3309   -2.2611    0.3338 H         1 <0>         0.0528
     31 H10        -2.2314   -2.6082    2.6807 H         1 <0>         0.0546
     32 H11        -0.6290   -2.5725    3.4548 H         1 <0>         0.0650
     33 H12        -1.3017   -1.0913    2.7325 H         1 <0>         0.0641
     34 H13        -0.4765   -3.0598   -2.0447 H         1 <0>         0.1301
     35 H14        -1.7208   -4.5630   -3.5445 H         1 <0>         0.1377
     36 H15        -5.1185   -4.3432   -0.9760 H         1 <0>         0.1374
     37 H16        -3.5325   -2.1390    1.4015 H         1 <0>         0.4020
     38 H17        -4.9308   -2.9878    1.0183 H         1 <0>         0.3988
     39 H18        -5.7893   -8.3020   -2.4404 H         1 <0>         0.0624
     40 H19        -4.4090   -8.5065   -1.3353 H         1 <0>         0.0747
     41 H20        -5.3847   -7.0191   -1.2748 H         1 <0>         0.0711
     42 H21        -2.0761   -7.7450   -2.8333 H         1 <0>         0.0568
     43 H22        -3.1899   -8.9824   -3.4630 H         1 <0>         0.0789
     44 H23        -2.7474   -7.5860   -4.4742 H         1 <0>         0.0849
@<TRIPOS>BOND
     1    1    2 1
     2    1   24 1
     3    1   25 1
     4    1   26 1
     5    2    3 1
     6    2    9 1
     7    2    4 1
     8    4    5 1
     9    4   27 1
    10    4   28 1
    11    5    6 1
    12    5   11 1
    13    6    7 1
    14    6    8 1
    15    6   10 1
    16    8    9 1
    17    8   29 1
    18    8   30 1
    19   10   31 1
    20   10   32 1
    21   10   33 1
    22   11   16 ar
    23   11   12 ar
    24   12   13 ar
    25   12   34 1
    26   13   14 ar
    27   13   35 1
    28   14   15 ar
    29   14   18 1
    30   15   16 ar
    31   15   36 1
    32   16   17 1
    33   17   37 1
    34   17   38 1
    35   18   19 2
    36   18   20 2
    37   18   21 1
    38   21   22 1
    39   21   23 1
    40   22   39 1
    41   22   40 1
    42   22   41 1
    43   23   42 1
    44   23   43 1
    45   23   44 1
