@<TRIPOS>MOLECULE
ZINC60445533
   45    47     0     0     0
SMALL
USER_CHARGES

@<TRIPOS>ATOM
      1 C1         -0.0187    1.5258    0.0104 C.3       1 <0>        -0.1569
      2 C2          0.0021   -0.0041    0.0020 C.3       1 <0>         0.0554
      3 O1         -1.3386   -0.4987    0.0122 O.3       1 <0>        -0.3708
      4 C3         -1.4321   -1.9246    0.0054 C.3       1 <0>         0.0794
      5 C4         -1.4893   -2.4272   -1.4401 C.3       1 <0>        -0.1697
      6 C5         -1.6693   -3.9468   -1.4392 C.3       1 <0>        -0.0004
      7 N1         -2.9169   -4.2949   -0.7488 N.4       1 <0>        -0.4042
      8 C6         -2.8407   -3.8799    0.6571 C.3       1 <0>        -0.0063
      9 C7         -2.7058   -2.3578    0.7369 C.3       1 <0>        -0.1414
     10 C8         -3.1244   -5.7476   -0.8184 C.3       1 <0>         0.2683
     11 N2         -4.4257   -6.0835   -0.2353 N.pl3     1 <0>        -0.4265
     12 C9         -4.6374   -6.6434    0.9734 C.2       1 <0>         0.4668
     13 S1         -3.4330   -7.0907    2.1049 S.2       1 <0>        -0.4897
     14 N3         -5.9685   -6.7865    1.1298 N.pl3     1 <0>        -0.5889
     15 H1         -6.4123   -7.1627    1.9060 H         1 <0>         0.4618
     16 C10        -6.5920   -6.3055   -0.0046 C.2       1 <0>         0.3744
     17 N4         -5.6782   -5.8760   -0.8291 N.2       1 <0>        -0.2844
     18 C11        -8.0523   -6.2769   -0.2419 C.ar      1 <0>        -0.0706
     19 C12        -8.9291   -6.7591    0.7303 C.ar      1 <0>        -0.0650
     20 C13       -10.2896   -6.7296    0.5039 C.ar      1 <0>        -0.1053
     21 C14       -10.7853   -6.2226   -0.6855 C.ar      1 <0>         0.0031
     22 C15        -9.9197   -5.7427   -1.6539 C.ar      1 <0>        -0.1091
     23 C16        -8.5577   -5.7624   -1.4361 C.ar      1 <0>        -0.0440
     24 Cl1       -12.4985   -6.1890   -0.9638 Cl        1 <0>        -0.0348
     25 H2          1.0039    1.9031    0.0027 H         1 <0>         0.0790
     26 H3         -0.5459    1.8868   -0.8726 H         1 <0>         0.0657
     27 H4         -0.5289    1.8773    0.9072 H         1 <0>         0.0667
     28 H5          0.5123   -0.3556   -0.8948 H         1 <0>         0.0537
     29 H6          0.5293   -0.3651    0.8851 H         1 <0>         0.0566
     30 H7         -0.5619   -2.3493    0.5060 H         1 <0>         0.0818
     31 H8         -2.3299   -1.9614   -1.9543 H         1 <0>         0.0988
     32 H9         -0.5615   -2.1709   -1.9516 H         1 <0>         0.1188
     33 H10        -1.7102   -4.3079   -2.4668 H         1 <0>         0.1415
     34 H11        -0.8281   -4.4115   -0.9249 H         1 <0>         0.1393
     35 H12        -3.7465   -4.1917    1.1771 H         1 <0>         0.1215
     36 H13        -1.9745   -4.3461    1.1267 H         1 <0>         0.1451
     37 H14        -2.6476   -2.0518    1.7814 H         1 <0>         0.1211
     38 H15        -3.5717   -1.8905    0.2678 H         1 <0>         0.0953
     39 H16        -3.0990   -6.0687   -1.8597 H         1 <0>         0.1710
     40 H17        -2.3355   -6.2543   -0.2625 H         1 <0>         0.1821
     41 H18        -8.5436   -7.1551    1.6581 H         1 <0>         0.1387
     42 H19       -10.9693   -7.1029    1.2555 H         1 <0>         0.1532
     43 H20       -10.3119   -5.3487   -2.5798 H         1 <0>         0.1526
     44 H21        -7.8836   -5.3837   -2.1903 H         1 <0>         0.1484
     45 H22        -3.6899   -3.8250   -1.1957 H         1 <0>         0.4276
@<TRIPOS>BOND
     1    1    2 1
     2    1   25 1
     3    1   26 1
     4    1   27 1
     5    2    3 1
     6    2   28 1
     7    2   29 1
     8    3    4 1
     9    4    9 1
    10    4    5 1
    11    4   30 1
    12    5    6 1
    13    5   31 1
    14    5   32 1
    15    6    7 1
    16    6   33 1
    17    6   34 1
    18    7    8 1
    19    7   10 1
    20    7   45 1
    21    8    9 1
    22    8   35 1
    23    8   36 1
    24    9   37 1
    25    9   38 1
    26   10   11 1
    27   10   39 1
    28   10   40 1
    29   11   17 1
    30   11   12 1
    31   12   13 2
    32   12   14 1
    33   14   15 1
    34   14   16 1
    35   16   17 2
    36   16   18 1
    37   18   23 ar
    38   18   19 ar
    39   19   20 ar
    40   19   41 1
    41   20   21 ar
    42   20   42 1
    43   21   22 ar
    44   21   24 1
    45   22   23 ar
    46   22   43 1
    47   23   44 1
