@<TRIPOS>MOLECULE
ZINC01269811
   36    39     0     0     0
SMALL
USER_CHARGES
trimethylBLAHdione
@<TRIPOS>ATOM
      1 C1          8.0977   -0.8530   -0.1096 C.3       1 <0>        -0.0896
      2 C2          6.5966   -0.9859   -0.0919 C.2       1 <0>         0.0779
      3 C3          5.7856    0.1757   -0.0742 C.2       1 <0>         0.5070
      4 O1          6.3033    1.2771   -0.0746 O.2       1 <0>        -0.4032
      5 N1          4.4405    0.0645   -0.0574 N.am      1 <0>        -0.5150
      6 C4          3.6865    1.1813   -0.0406 C.2       1 <0>         0.5607
      7 O2          4.2122    2.2810   -0.0423 O.2       1 <0>        -0.4527
      8 C5          2.2627    1.0600   -0.0213 C.2       1 <0>        -0.2780
      9 C6          1.2669    2.1474    0.0015 C.2       1 <0>        -0.0192
     10 C7         -0.0221    1.7756    0.0118 C.2       1 <0>        -0.1842
     11 S1          0.0021   -0.0041    0.0020 S.3       1 <0>         0.1796
     12 C8          1.7577   -0.2475   -0.0229 C.2       1 <0>         0.1437
     13 N2          2.5512   -1.3114   -0.0403 N.2       1 <0>        -0.5101
     14 C9          3.8624   -1.1768   -0.0566 C.2       1 <0>         0.6020
     15 N3          4.6553   -2.2984   -0.0753 N.pl3     1 <0>        -0.4967
     16 H1          4.2497   -3.1795   -0.0761 H         1 <0>         0.4704
     17 N4          6.0497   -2.1689   -0.0924 N.2       1 <0>        -0.1499
     18 C10        -1.2745    2.6100    0.0188 C.3       1 <0>        -0.0021
     19 S2         -0.8254    4.3143    0.4724 S.3       1 <0>        -0.2233
     20 C11         0.7039    4.5613   -0.4838 C.3       1 <0>        -0.0243
     21 C12         1.7595    3.5891    0.0246 C.3       1 <0>        -0.0593
     22 C13         1.1979    5.9976   -0.2999 C.3       1 <0>        -0.1295
     23 C14         0.4344    4.2971   -1.9666 C.3       1 <0>        -0.1455
     24 H2          8.4723   -0.8277    0.9137 H         1 <0>         0.1024
     25 H3          8.5316   -1.7041   -0.6344 H         1 <0>         0.1003
     26 H4          8.3748    0.0689   -0.6209 H         1 <0>         0.1020
     27 H5         -1.7272    2.6011   -0.9728 H         1 <0>         0.1082
     28 H6         -1.9786    2.2093    0.7480 H         1 <0>         0.1233
     29 H7          2.0244    3.8567    1.0474 H         1 <0>         0.0928
     30 H8          2.6473    3.6703   -0.6025 H         1 <0>         0.1020
     31 H9          2.1211    6.1391   -0.8618 H         1 <0>         0.0753
     32 H10         0.4407    6.6918   -0.6645 H         1 <0>         0.0701
     33 H11         1.3838    6.1853    0.7576 H         1 <0>         0.0672
     34 H12         0.0772    3.2753   -2.0945 H         1 <0>         0.0585
     35 H13        -0.3215    4.9942   -2.3283 H         1 <0>         0.0713
     36 H14         1.3554    4.4337   -2.5332 H         1 <0>         0.0679
@<TRIPOS>BOND
     1    1    2 1
     2    1   24 1
     3    1   25 1
     4    1   26 1
     5    2   17 2
     6    2    3 1
     7    3    4 2
     8    3    5 am
     9    5   14 1
    10    5    6 am
    11    6    7 2
    12    6    8 1
    13    8   12 2
    14    8    9 1
    15    9   21 1
    16    9   10 2
    17   10   11 1
    18   10   18 1
    19   11   12 1
    20   12   13 1
    21   13   14 2
    22   14   15 1
    23   15   16 1
    24   15   17 1
    25   18   19 1
    26   18   27 1
    27   18   28 1
    28   19   20 1
    29   20   21 1
    30   20   22 1
    31   20   23 1
    32   21   29 1
    33   21   30 1
    34   22   31 1
    35   22   32 1
    36   22   33 1
    37   23   34 1
    38   23   35 1
    39   23   36 1
