@<TRIPOS>MOLECULE
ZINC39524359
   43    44     0     0     0
SMALL
USER_CHARGES

@<TRIPOS>ATOM
      1 C1         -0.0187    1.5258    0.0104 C.3       1 <0>        -0.1460
      2 C2          0.0021   -0.0041    0.0020 C.3       1 <0>        -0.5739
      3 C3          0.7421   -0.5109    1.2415 C.3       1 <0>        -0.1435
      4 S1         -1.6997   -0.6320    0.0149 S.o2      1 <0>         2.4035
      5 O1         -1.6581   -2.0461   -0.1183 O.2       1 <0>        -0.9391
      6 O2         -2.3807   -0.0621    1.1243 O.2       1 <0>        -0.9358
      7 C4         -2.3965    0.0675   -1.5069 C.3       1 <0>        -0.5548
      8 H1         -2.3489    1.1555   -1.4618 H         1 <0>         0.1490
      9 C5         -1.5929   -0.4286   -2.7107 C.3       1 <0>        -0.1109
     10 C6         -2.1805    0.1622   -3.9940 C.3       1 <0>        -0.0956
     11 C7         -3.6385   -0.2788   -4.1375 C.3       1 <0>        -0.1235
     12 C8         -4.4426    0.2162   -2.9336 C.3       1 <0>         0.1097
     13 C9         -3.8543   -0.3738   -1.6502 C.3       1 <0>        -0.0956
     14 C10        -5.8999   -0.2292   -3.0764 C.3       1 <0>        -0.1525
     15 C11        -6.4928    0.3798   -4.3498 C.3       1 <0>        -0.1172
     16 C12        -6.3733    1.9048   -4.2804 C.3       1 <0>        -0.1916
     17 C13        -4.9022    2.2882   -4.1039 C.3       1 <0>         0.2540
     18 H2         -4.8148    3.3728   -4.0401 H         1 <0>         0.0901
     19 N1         -4.3814    1.6820   -2.8720 N.3       1 <0>        -0.3356
     20 Cl1        -5.2126    2.2729   -1.4994 Cl        1 <0>        -0.0541
     21 O3         -4.1493    1.8148   -5.2224 O.3       1 <0>        -0.5348
     22 H3          1.0039    1.9031    0.0027 H         1 <0>         0.0796
     23 H4         -0.5459    1.8868   -0.8726 H         1 <0>         0.0721
     24 H5         -0.5289    1.8773    0.9072 H         1 <0>         0.0768
     25 H6          0.5123   -0.3556   -0.8948 H         1 <0>         0.1370
     26 H7          0.2319   -0.1594    2.1383 H         1 <0>         0.0727
     27 H8          0.7568   -1.6008    1.2356 H         1 <0>         0.0724
     28 H9          1.7647   -0.1336    1.2338 H         1 <0>         0.0826
     29 H10        -0.5541   -0.1145   -2.6086 H         1 <0>         0.0729
     30 H11        -1.6409   -1.5166   -2.7563 H         1 <0>         0.0798
     31 H12        -2.1329    1.2502   -3.9481 H         1 <0>         0.0811
     32 H13        -1.6081   -0.1906   -4.8518 H         1 <0>         0.0639
     33 H14        -4.0570    0.1422   -5.0517 H         1 <0>         0.1246
     34 H15        -3.6861   -1.3667   -4.1837 H         1 <0>         0.0657
     35 H16        -3.9018   -1.4618   -1.6955 H         1 <0>         0.0891
     36 H17        -4.4267   -0.0207   -0.7924 H         1 <0>         0.0843
     37 H18        -5.9436   -1.3166   -3.1386 H         1 <0>         0.0813
     38 H19        -6.4702    0.1094   -2.2114 H         1 <0>         0.0724
     39 H20        -5.9472    0.0109   -5.2183 H         1 <0>         0.0775
     40 H21        -7.5431    0.1002   -4.4325 H         1 <0>         0.0691
     41 H22        -6.7553    2.3422   -5.2028 H         1 <0>         0.0801
     42 H23        -6.9505    2.2770   -3.4340 H         1 <0>         0.0798
     43 H24        -4.4383    2.1752   -6.0719 H         1 <0>         0.3834
@<TRIPOS>BOND
     1    1    2 1
     2    1   22 1
     3    1   23 1
     4    1   24 1
     5    2    3 1
     6    2    4 1
     7    2   25 1
     8    3   26 1
     9    3   27 1
    10    3   28 1
    11    4    5 2
    12    4    6 2
    13    4    7 1
    14    7    8 1
    15    7   13 1
    16    7    9 1
    17    9   10 1
    18    9   29 1
    19    9   30 1
    20   10   11 1
    21   10   31 1
    22   10   32 1
    23   11   12 1
    24   11   33 1
    25   11   34 1
    26   12   19 1
    27   12   13 1
    28   12   14 1
    29   13   35 1
    30   13   36 1
    31   14   15 1
    32   14   37 1
    33   14   38 1
    34   15   16 1
    35   15   39 1
    36   15   40 1
    37   16   17 1
    38   16   41 1
    39   16   42 1
    40   17   18 1
    41   17   19 1
    42   17   21 1
    43   19   20 1
    44   21   43 1
