@<TRIPOS>MOLECULE
ZINC08941799
   39    40     0     0     0
SMALL
USER_CHARGES
1-methyl-3-(4-sulfamoylphenyl)-1-[1-(2-thienyl)ethyl]urea
@<TRIPOS>ATOM
      1 C1          2.0670    3.9965   -1.2383 C.3       1 <0>        -0.1592
      2 C2          1.5382    3.5960    0.1404 C.3       1 <0>         0.2389
      3 H1          0.5932    4.1053    0.3291 H         1 <0>         0.1262
      4 C3          1.3224    2.1051    0.1819 C.2       1 <0>        -0.1605
      5 C4          0.1598    1.4094    0.1391 C.2       1 <0>        -0.1405
      6 C5          0.2025    0.0288    0.1913 C.2       1 <0>        -0.1564
      7 C6          1.4057   -0.5886    0.2838 C.2       1 <0>        -0.1737
      8 S1          2.5315    0.7969    0.2996 S.3       1 <0>         0.0358
      9 N1          2.5119    3.9772    1.1665 N.am      1 <0>        -0.6186
     10 C7          3.9034    3.5325    1.0571 C.3       1 <0>         0.0704
     11 C8          2.1274    4.7370    2.2111 C.2       1 <0>         0.7106
     12 O1          0.9724    5.1061    2.3019 O.2       1 <0>        -0.5614
     13 N2          3.0231    5.0878    3.1551 N.am      1 <0>        -0.6861
     14 C9          2.6483    5.9549    4.1876 C.ar      1 <0>         0.2250
     15 C10         3.5629    6.8678    4.6960 C.ar      1 <0>        -0.1692
     16 C11         3.1884    7.7255    5.7118 C.ar      1 <0>         0.0034
     17 C12         1.9075    7.6687    6.2296 C.ar      1 <0>        -0.6946
     18 C13         0.9960    6.7572    5.7291 C.ar      1 <0>         0.0025
     19 C14         1.3627    5.9004    4.7098 C.ar      1 <0>        -0.1429
     20 S2          1.4356    8.7605    7.5296 S.o2      1 <0>         2.7032
     21 O2          2.2995    9.8858    7.4486 O.2       1 <0>        -0.9645
     22 O3          0.0210    8.8799    7.4662 O.2       1 <0>        -0.9631
     23 N3          1.7828    7.9992    8.9586 N.pl3     1 <0>        -1.2505
     24 H2          1.3426    3.7129   -2.0018 H         1 <0>         0.0786
     25 H3          2.2232    5.0748   -1.2684 H         1 <0>         0.0713
     26 H4          3.0121    3.4872   -1.4270 H         1 <0>         0.0639
     27 H5         -0.7854    1.9259    0.0609 H         1 <0>         0.1355
     28 H6         -0.7091   -0.5494    0.1593 H         1 <0>         0.1354
     29 H7          1.6261   -1.6447    0.3350 H         1 <0>         0.1855
     30 H8          4.4979    4.3125    0.5814 H         1 <0>         0.0688
     31 H9          4.2994    3.3298    2.0522 H         1 <0>         0.0703
     32 H10         3.9484    2.6241    0.4563 H         1 <0>         0.0815
     33 H11         3.9276    4.7391    3.1189 H         1 <0>         0.4118
     34 H12         4.5648    6.9096    4.2950 H         1 <0>         0.1377
     35 H13         3.8981    8.4385    6.1048 H         1 <0>         0.1480
     36 H14        -0.0038    6.7155    6.1354 H         1 <0>         0.1470
     37 H15         0.6502    5.1890    4.3191 H         1 <0>         0.1522
     38 H16         2.1745    7.1118    8.9528 H         1 <0>         0.4165
     39 H17         1.5944    8.4406    9.8016 H         1 <0>         0.4210
@<TRIPOS>BOND
     1    1    2 1
     2    1   24 1
     3    1   25 1
     4    1   26 1
     5    2    3 1
     6    2    4 1
     7    2    9 1
     8    4    8 1
     9    4    5 2
    10    5    6 1
    11    5   27 1
    12    6    7 2
    13    6   28 1
    14    7    8 1
    15    7   29 1
    16    9   10 1
    17    9   11 am
    18   10   30 1
    19   10   31 1
    20   10   32 1
    21   11   12 2
    22   11   13 am
    23   13   14 1
    24   13   33 1
    25   14   19 ar
    26   14   15 ar
    27   15   16 ar
    28   15   34 1
    29   16   17 ar
    30   16   35 1
    31   17   18 ar
    32   17   20 1
    33   18   19 ar
    34   18   36 1
    35   19   37 1
    36   20   21 2
    37   20   22 2
    38   20   23 1
    39   23   38 1
    40   23   39 1
