@<TRIPOS>MOLECULE
ZINC07191780
   37    38     0     0     0
SMALL
USER_CHARGES
5-(4-chlorophenyl)-3-(2-ethoxyethyl)-5-methyl-imidazolidine-2,4-dione
@<TRIPOS>ATOM
      1 C1         -2.6208   -0.1662    4.0470 C.3       1 <0>        -0.1497
      2 C2         -1.2806   -0.6023    3.4516 C.3       1 <0>         0.0578
      3 O1         -1.1971   -0.1638    2.0941 O.3       1 <0>        -0.3757
      4 C3          0.0228   -0.5218    1.4416 C.3       1 <0>         0.0427
      5 C4          0.0021   -0.0041    0.0020 C.3       1 <0>         0.1200
      6 N1         -0.0178    1.4608    0.0101 N.am      1 <0>        -0.5687
      7 C5          1.0867    2.2329    0.0037 C.2       1 <0>         0.5351
      8 O2          2.2404    1.8606   -0.0081 O.2       1 <0>        -0.4609
      9 C6          0.5865    3.6638    0.0152 C.3       1 <0>         0.1669
     10 N2         -0.8793    3.5180    0.0279 N.am      1 <0>        -0.7215
     11 C7         -1.1347    2.1972    0.0189 C.2       1 <0>         0.7072
     12 O3         -2.2549    1.7257    0.0218 O.2       1 <0>        -0.5187
     13 C8          1.0429    4.4038   -1.2438 C.3       1 <0>        -0.1448
     14 C9          1.0588    4.3806    1.2538 C.ar      1 <0>        -0.0922
     15 C10         2.2542    4.0202    1.8472 C.ar      1 <0>        -0.0967
     16 C11         2.6907    4.6811    2.9799 C.ar      1 <0>        -0.1047
     17 C12         1.9254    5.6959    3.5264 C.ar      1 <0>        -0.0260
     18 C13         0.7264    6.0524    2.9353 C.ar      1 <0>        -0.1077
     19 C14         0.2937    5.3946    1.7994 C.ar      1 <0>        -0.0828
     20 Cl1         2.4698    6.5221    4.9529 Cl        1 <0>        -0.0623
     21 H1         -2.6981    0.9204    4.0108 H         1 <0>         0.0609
     22 H2         -3.4347   -0.6077    3.4719 H         1 <0>         0.0645
     23 H3         -2.6845   -0.5007    5.0824 H         1 <0>         0.0707
     24 H4         -1.2033   -1.6890    3.4878 H         1 <0>         0.0493
     25 H5         -0.4667   -0.1609    4.0267 H         1 <0>         0.0451
     26 H6          0.1271   -1.6067    1.4361 H         1 <0>         0.0710
     27 H7          0.8637   -0.0786    1.9750 H         1 <0>         0.0536
     28 H8         -0.8878   -0.3767   -0.5053 H         1 <0>         0.1089
     29 H9          0.8920   -0.3525   -0.5222 H         1 <0>         0.1125
     30 H10        -1.5330    4.2347    0.0379 H         1 <0>         0.4396
     31 H11         0.6584    3.8916   -2.1258 H         1 <0>         0.0748
     32 H12         0.6633    5.4253   -1.2225 H         1 <0>         0.0836
     33 H13         2.1322    4.4216   -1.2800 H         1 <0>         0.0875
     34 H14         2.8493    3.2250    1.4230 H         1 <0>         0.1493
     35 H15         3.6267    4.4024    3.4409 H         1 <0>         0.1393
     36 H16         0.1285    6.8443    3.3617 H         1 <0>         0.1395
     37 H17        -0.6420    5.6730    1.3377 H         1 <0>         0.1328
@<TRIPOS>BOND
     1    1    2 1
     2    1   21 1
     3    1   22 1
     4    1   23 1
     5    2    3 1
     6    2   24 1
     7    2   25 1
     8    3    4 1
     9    4    5 1
    10    4   26 1
    11    4   27 1
    12    5    6 1
    13    5   28 1
    14    5   29 1
    15    6   11 am
    16    6    7 am
    17    7    8 2
    18    7    9 1
    19    9   10 1
    20    9   13 1
    21    9   14 1
    22   10   11 am
    23   10   30 1
    24   11   12 2
    25   13   31 1
    26   13   32 1
    27   13   33 1
    28   14   19 ar
    29   14   15 ar
    30   15   16 ar
    31   15   34 1
    32   16   17 ar
    33   16   35 1
    34   17   18 ar
    35   17   20 1
    36   18   19 ar
    37   18   36 1
    38   19   37 1
