@<TRIPOS>MOLECULE
ZINC63836063
   55    57     0     0     0
SMALL
USER_CHARGES

@<TRIPOS>ATOM
      1 C1          0.8909    1.6951   -0.8889 C.3       1 <0>        -0.1175
      2 C2          0.7820    0.1968   -0.7697 C.ar      1 <0>        -0.0986
      3 C3          0.7130   -0.5828   -1.9097 C.ar      1 <0>        -0.0944
      4 C4          0.6130   -1.9563   -1.8039 C.ar      1 <0>        -0.1478
      5 C5          0.5823   -2.5542   -0.5509 C.ar      1 <0>         0.1441
      6 C6          0.6523   -1.7685    0.5921 C.ar      1 <0>        -0.1453
      7 C7          0.7569   -0.3960    0.4794 C.ar      1 <0>        -0.0922
      8 N1          0.4807   -3.9454   -0.4402 N.am      1 <0>        -0.5440
      9 C8          0.5526   -4.6827    0.8267 C.3       1 <0>         0.0884
     10 C9         -0.0321   -6.0802    0.5240 C.3       1 <0>        -0.1169
     11 C10         0.2287   -6.2088   -0.9947 C.3       1 <0>        -0.1487
     12 C11         0.2989   -4.7777   -1.4799 C.2       1 <0>         0.5270
     13 O1          0.2072   -4.4318   -2.6388 O.2       1 <0>        -0.5094
     14 C12        -0.9093   -6.9339   -1.6657 C.2       1 <0>         0.5421
     15 O2         -1.8526   -7.3213   -1.0092 O.2       1 <0>        -0.5026
     16 N2         -0.8788   -7.1520   -2.9954 N.am      1 <0>        -0.7414
     17 C13        -1.9851   -7.8569   -3.6476 C.3       1 <0>         0.1077
     18 C14        -1.6480   -8.0804   -5.1232 C.3       1 <0>         0.0394
     19 C15        -1.5401   -6.7249   -5.8518 C.3       1 <0>        -0.1364
     20 C16        -2.1469   -6.9963   -7.2508 C.3       1 <0>        -0.1378
     21 C17        -3.3245   -7.9510   -6.9333 C.3       1 <0>        -0.1272
     22 C18        -2.7826   -8.8599   -5.8108 C.3       1 <0>        -0.1337
     23 N3         -0.3844   -8.8197   -5.2439 N.4       1 <0>        -0.3799
     24 C19        -0.5297  -10.1425   -4.6218 C.3       1 <0>        -0.0583
     25 C20        -0.0453   -8.9811   -6.6641 C.3       1 <0>        -0.0593
     26 H1          1.9420    1.9806   -0.9331 H         1 <0>         0.0730
     27 H2          0.3864    2.0250   -1.7970 H         1 <0>         0.0680
     28 H3          0.4233    2.1634   -0.0228 H         1 <0>         0.0689
     29 H4          0.7369   -0.1172   -2.8839 H         1 <0>         0.1282
     30 H5          0.5585   -2.5645   -2.6946 H         1 <0>         0.1522
     31 H6          0.6282   -2.2305    1.5680 H         1 <0>         0.1279
     32 H7          0.8155    0.2153    1.3678 H         1 <0>         0.1309
     33 H8          1.5886   -4.7701    1.1540 H         1 <0>         0.0917
     34 H9         -0.0436   -4.1815    1.5892 H         1 <0>         0.0980
     35 H10         0.4996   -6.8539    1.0779 H         1 <0>         0.1080
     36 H11        -1.0999   -6.1116    0.7405 H         1 <0>         0.1070
     37 H12         1.1714   -6.7244   -1.1776 H         1 <0>         0.1434
     38 H13        -0.1244   -6.8422   -3.5205 H         1 <0>         0.4021
     39 H14        -2.1401   -8.8196   -3.1605 H         1 <0>         0.0991
     40 H15        -2.8934   -7.2594   -3.5689 H         1 <0>         0.1122
     41 H16        -2.1165   -5.9629   -5.3273 H         1 <0>         0.1146
     42 H17        -0.4969   -6.4216   -5.9407 H         1 <0>         0.0892
     43 H18        -2.5094   -6.0720   -7.7006 H         1 <0>         0.0931
     44 H19        -1.4190   -7.4833   -7.8997 H         1 <0>         0.0793
     45 H20        -4.1891   -7.3869   -6.5834 H         1 <0>         0.0862
     46 H21        -3.5836   -8.5424   -7.8115 H         1 <0>         0.0883
     47 H22        -2.3954   -9.7864   -6.2349 H         1 <0>         0.0917
     48 H23        -3.5733   -9.0790   -5.0933 H         1 <0>         0.1066
     49 H24         0.4222  -10.6717   -4.6668 H         1 <0>         0.1286
     50 H25        -0.8303  -10.0234   -3.5809 H         1 <0>         0.1242
     51 H26        -1.2887  -10.7139   -5.1561 H         1 <0>         0.1275
     52 H27         0.0625   -7.9996   -7.1258 H         1 <0>         0.1295
     53 H28         0.8923   -9.5297   -6.7537 H         1 <0>         0.1269
     54 H29        -0.8391   -9.5338   -7.1667 H         1 <0>         0.1272
     55 H30         0.3504   -8.3081   -4.7787 H         1 <0>         0.4194
@<TRIPOS>BOND
     1    1    2 1
     2    1   26 1
     3    1   27 1
     4    1   28 1
     5    2    7 ar
     6    2    3 ar
     7    3    4 ar
     8    3   29 1
     9    4    5 ar
    10    4   30 1
    11    5    6 ar
    12    5    8 1
    13    6    7 ar
    14    6   31 1
    15    7   32 1
    16    8   12 am
    17    8    9 1
    18    9   10 1
    19    9   33 1
    20    9   34 1
    21   10   11 1
    22   10   35 1
    23   10   36 1
    24   11   12 1
    25   11   14 1
    26   11   37 1
    27   12   13 2
    28   14   15 2
    29   14   16 am
    30   16   17 1
    31   16   38 1
    32   17   18 1
    33   17   39 1
    34   17   40 1
    35   18   22 1
    36   18   19 1
    37   18   23 1
    38   19   20 1
    39   19   41 1
    40   19   42 1
    41   20   21 1
    42   20   43 1
    43   20   44 1
    44   21   22 1
    45   21   45 1
    46   21   46 1
    47   22   47 1
    48   22   48 1
    49   23   24 1
    50   23   25 1
    51   23   55 1
    52   24   49 1
    53   24   50 1
    54   24   51 1
    55   25   52 1
    56   25   53 1
    57   25   54 1
