@<TRIPOS>MOLECULE
ZINC20873850
   51    52     0     0     0
SMALL
USER_CHARGES
N-[[3-bromo-5-methoxy-4-(p-tolylmethoxy)phenyl]methyl]-2-methyl-propan-1-amine
@<TRIPOS>ATOM
      1 C1         -3.9703   -1.3528    8.0333 C.3       1 <0>        -0.1239
      2 C2         -3.2220   -0.4305    7.1057 C.ar      1 <0>        -0.0673
      3 C3         -2.5068   -0.9502    6.0430 C.ar      1 <0>        -0.1245
      4 C4         -1.8204   -0.1042    5.1921 C.ar      1 <0>        -0.0869
      5 C5         -1.8499    1.2616    5.4035 C.ar      1 <0>        -0.1078
      6 C6         -2.5611    1.7810    6.4690 C.ar      1 <0>        -0.0868
      7 C7         -3.2511    0.9352    7.3173 C.ar      1 <0>        -0.1250
      8 C8         -1.1016    2.1840    4.4758 C.3       1 <0>         0.1120
      9 O1         -1.9567    2.5731    3.3991 O.3       1 <0>        -0.3075
     10 C9         -1.4316    3.4113    2.4655 C.ar      1 <0>         0.1293
     11 C10        -0.7875    2.8927    1.3463 C.ar      1 <0>         0.1269
     12 C11        -0.2592    3.7505    0.3951 C.ar      1 <0>        -0.1670
     13 C12        -0.3679    5.1189    0.5613 C.ar      1 <0>        -0.1244
     14 C13        -1.0025    5.6347    1.6755 C.ar      1 <0>        -0.0921
     15 C14        -1.5315    4.7839    2.6297 C.ar      1 <0>        -0.0824
     16 Br1        -2.3985    5.4936    4.1530 Br        1 <0>         0.0024
     17 C15         0.2066    6.0500   -0.4751 C.3       1 <0>         0.0530
     18 N1         -0.8130    6.3394   -1.4923 N.4       1 <0>        -0.5405
     19 C16        -0.2873    7.2463   -2.5214 C.3       1 <0>        -0.0050
     20 C17        -1.3754    7.5238   -3.5607 C.3       1 <0>        -0.1166
     21 C18        -2.5281    8.2840   -2.9017 C.3       1 <0>        -0.1724
     22 C19        -0.7924    8.3663   -4.6970 C.3       1 <0>        -0.1553
     23 O2         -0.6816    1.5467    1.1837 O.3       1 <0>        -0.2915
     24 C20        -0.0127    1.0858    0.0080 C.3       1 <0>         0.0163
     25 H1         -3.8298   -2.3939    7.7071 H         1 <0>         0.0685
     26 H2         -5.0415   -1.1034    8.0128 H         1 <0>         0.0740
     27 H3         -3.5858   -1.2342    9.0571 H         1 <0>         0.0744
     28 H4         -2.4840   -2.0172    5.8777 H         1 <0>         0.1265
     29 H5         -1.2613   -0.5102    4.3621 H         1 <0>         0.1235
     30 H6         -2.5806    2.8477    6.6366 H         1 <0>         0.1227
     31 H7         -3.8102    1.3413    8.1473 H         1 <0>         0.1265
     32 H8         -0.7790    3.0781    5.0294 H         1 <0>         0.0678
     33 H9         -0.2197    1.6636    4.0740 H         1 <0>         0.0681
     34 H10         0.2372    3.3502   -0.4765 H         1 <0>         0.1473
     35 H11        -1.0853    6.7041    1.8017 H         1 <0>         0.1473
     36 H12         0.5195    6.9876    0.0076 H         1 <0>         0.1403
     37 H13         1.0765    5.5753   -0.9525 H         1 <0>         0.1387
     38 H14        -1.1259    5.4018   -1.9749 H         1 <0>         0.4482
     39 H15         0.0222    8.1923   -2.0530 H         1 <0>         0.1304
     40 H16         0.5791    6.7800   -3.0132 H         1 <0>         0.1302
     41 H17        -1.7481    6.5710   -3.9648 H         1 <0>         0.0934
     42 H18        -3.3104    8.4835   -3.6489 H         1 <0>         0.0839
     43 H19        -2.1554    9.2368   -2.4977 H         1 <0>         0.0735
     44 H20        -2.9472    7.6782   -2.0848 H         1 <0>         0.0524
     45 H21        -1.5747    8.5658   -5.4441 H         1 <0>         0.0779
     46 H22         0.0363    7.8197   -5.1708 H         1 <0>         0.0677
     47 H23        -0.4197    9.3191   -4.2930 H         1 <0>         0.0683
     48 H24         0.0022   -0.0141    0.0020 H         1 <0>         0.1154
     49 H25         1.0193    1.4665    0.0002 H         1 <0>         0.0622
     50 H26        -0.5447    1.4502   -0.8832 H         1 <0>         0.0602
     51 H27        -1.6829    6.8141   -1.0149 H         1 <0>         0.4478
@<TRIPOS>BOND
     1    1    2 1
     2    1   25 1
     3    1   26 1
     4    1   27 1
     5    2    7 ar
     6    2    3 ar
     7    3    4 ar
     8    3   28 1
     9    4    5 ar
    10    4   29 1
    11    5    6 ar
    12    5    8 1
    13    6    7 ar
    14    6   30 1
    15    7   31 1
    16    8    9 1
    17    8   32 1
    18    8   33 1
    19    9   10 1
    20   10   15 ar
    21   10   11 ar
    22   11   12 ar
    23   11   23 1
    24   12   13 ar
    25   12   34 1
    26   13   14 ar
    27   13   17 1
    28   14   15 ar
    29   14   35 1
    30   15   16 1
    31   17   18 1
    32   17   36 1
    33   17   37 1
    34   18   19 1
    35   18   38 1
    36   18   51 1
    37   19   20 1
    38   19   39 1
    39   19   40 1
    40   20   21 1
    41   20   22 1
    42   20   41 1
    43   21   42 1
    44   21   43 1
    45   21   44 1
    46   22   45 1
    47   22   46 1
    48   22   47 1
    49   23   24 1
    50   24   48 1
    51   24   49 1
    52   24   50 1
