@<TRIPOS>MOLECULE
ZINC52126072
   29    30     0     0     0
SMALL
USER_CHARGES

@<TRIPOS>ATOM
      1 C1         -1.3733   -0.0754    0.6660 C.3       1 <0>        -0.1276
      2 C2          0.0049   -0.0093    0.0047 C.3       1 <0>        -0.0415
      3 C3          1.2307   -0.0862    0.9171 C.3       1 <0>        -0.1434
      4 C4          0.8503    1.2406    0.2570 C.3       1 <0>        -0.0717
      5 H1          0.4247    2.0160    0.8941 H         1 <0>         0.1853
      6 N1          1.6988    1.7189   -0.8427 N.4       1 <0>        -0.6066
      7 C5          0.1059   -0.6554   -1.3530 C.ar      1 <0>        -0.1209
      8 C6          0.8938   -1.7783   -1.5259 C.ar      1 <0>        -0.0734
      9 C7          0.9892   -2.3731   -2.7695 C.ar      1 <0>        -0.1772
     10 C8          0.2936   -1.8435   -3.8458 C.ar      1 <0>         0.1191
     11 C9         -0.4980   -0.7155   -3.6706 C.ar      1 <0>         0.0781
     12 C10        -0.5938   -0.1273   -2.4222 C.ar      1 <0>        -0.1135
     13 F1         -1.1772   -0.1966   -4.7168 F         1 <0>        -0.1199
     14 O1          0.3864   -2.4268   -5.0703 O.3       1 <0>        -0.3011
     15 C11         1.2190   -3.5833   -5.1765 C.3       1 <0>         0.0208
     16 H2         -1.9828    0.7593    0.3197 H         1 <0>         0.0769
     17 H3         -1.8589   -1.0145    0.4008 H         1 <0>         0.0840
     18 H4         -1.2599   -0.0180    1.7486 H         1 <0>         0.0779
     19 H5          1.0553   -0.1838    1.9885 H         1 <0>         0.1406
     20 H6          2.1105   -0.6042    0.5355 H         1 <0>         0.1242
     21 H7          1.1168    2.0246   -1.6081 H         1 <0>         0.4362
     22 H8          2.2636    2.4905   -0.5206 H         1 <0>         0.4410
     23 H9          1.4357   -2.1911   -0.6878 H         1 <0>         0.1409
     24 H10         1.6055   -3.2498   -2.9033 H         1 <0>         0.1496
     25 H11        -1.2123    0.7471   -2.2835 H         1 <0>         0.1485
     26 H12         2.2401   -3.3227   -4.8981 H         1 <0>         0.0631
     27 H13         0.8477   -4.3609   -4.5090 H         1 <0>         0.0649
     28 H14         1.2044   -3.9485   -6.2034 H         1 <0>         0.1139
     29 H15         2.2989    0.9701   -1.1546 H         1 <0>         0.4322
@<TRIPOS>BOND
     1    1    2 1
     2    1   16 1
     3    1   17 1
     4    1   18 1
     5    2    4 1
     6    2    3 1
     7    2    7 1
     8    3    4 1
     9    3   19 1
    10    3   20 1
    11    4    5 1
    12    4    6 1
    13    6   21 1
    14    6   22 1
    15    6   29 1
    16    7   12 ar
    17    7    8 ar
    18    8    9 ar
    19    8   23 1
    20    9   10 ar
    21    9   24 1
    22   10   11 ar
    23   10   14 1
    24   11   12 ar
    25   11   13 1
    26   12   25 1
    27   14   15 1
    28   15   26 1
    29   15   27 1
    30   15   28 1
