@<TRIPOS>MOLECULE
ZINC39658835
   62    64     0     0     0
SMALL
USER_CHARGES

@<TRIPOS>ATOM
      1 C1          0.6133    1.2596   -0.1968 C.3       1 <0>        -0.1554
      2 C2          0.5059   -0.2662   -0.1618 C.3       1 <0>        -0.1203
      3 C3         -0.9688   -0.6733   -0.1410 C.3       1 <0>        -0.0763
      4 H1         -1.4827   -0.2208   -0.9891 H         1 <0>         0.0776
      5 C4         -1.6124   -0.1923    1.1611 C.3       1 <0>        -0.1532
      6 C5         -1.0787   -2.1967   -0.2318 C.3       1 <0>        -0.1338
      7 C6         -2.5297   -2.5904   -0.3350 C.2       1 <0>         0.5472
      8 O1         -3.3911   -1.7367   -0.3359 O.2       1 <0>        -0.5284
      9 N1         -2.8701   -3.8913   -0.4264 N.am      1 <0>        -0.6211
     10 C7         -1.9688   -5.0675   -0.4346 C.3       1 <0>         0.1157
     11 C8         -2.7047   -6.1291    0.4132 C.3       1 <0>        -0.1151
     12 H2         -2.5558   -7.1226   -0.0099 H         1 <0>         0.1165
     13 C9         -4.1885   -5.7319    0.3378 C.3       1 <0>        -0.0714
     14 C10        -4.2312   -4.4690   -0.5348 C.3       1 <0>         0.1060
     15 C11        -5.0026   -6.8491   -0.3076 C.3       1 <0>        -0.1342
     16 C12        -6.4823   -6.4552   -0.3185 C.3       1 <0>        -0.0094
     17 N2         -6.9388   -6.2219    1.0569 N.4       1 <0>        -0.5045
     18 C13        -6.2147   -5.0852    1.6387 C.3       1 <0>        -0.0084
     19 C14        -4.7237   -5.4212    1.7324 C.3       1 <0>        -0.1465
     20 C15        -2.2203   -6.0894    1.8397 C.2       1 <0>         0.5154
     21 O2         -1.8283   -5.0462    2.3182 O.2       1 <0>        -0.5202
     22 N3         -2.2226   -7.2132    2.5837 N.am      1 <0>        -0.7229
     23 C16        -1.7517   -7.1746    3.9704 C.3       1 <0>         0.1212
     24 C17        -1.8584   -8.5719    4.5843 C.3       1 <0>         0.0672
     25 H3         -1.2595   -9.2819    4.0138 H         1 <0>         0.0813
     26 C18        -1.3975   -8.5461    6.0635 C.3       1 <0>        -0.1497
     27 C19        -2.1609   -9.7735    6.6316 C.3       1 <0>        -0.1575
     28 C20        -3.4747   -9.7460    5.8212 C.3       1 <0>         0.0515
     29 O3         -3.2303   -8.9956    4.6241 O.3       1 <0>        -0.3861
     30 H4          1.6639    1.5496   -0.2116 H         1 <0>         0.0561
     31 H5          0.1192    1.6382   -1.0916 H         1 <0>         0.0547
     32 H6          0.1333    1.6780    0.6879 H         1 <0>         0.0579
     33 H7          0.9859   -0.6846   -1.0464 H         1 <0>         0.0619
     34 H8          1.0000   -0.6448    0.7330 H         1 <0>         0.0630
     35 H9         -1.0985   -0.6448    2.0092 H         1 <0>         0.0485
     36 H10        -1.5341    0.8930    1.2258 H         1 <0>         0.0580
     37 H11        -2.6630   -0.4823    1.1759 H         1 <0>         0.0675
     38 H12        -0.5433   -2.5476   -1.1140 H         1 <0>         0.0930
     39 H13        -0.6428   -2.6462    0.6604 H         1 <0>         0.0995
     40 H14        -1.8239   -5.4281   -1.4530 H         1 <0>         0.0896
     41 H15        -1.0108   -4.8154    0.0201 H         1 <0>         0.0973
     42 H16        -4.9735   -3.7683   -0.1524 H         1 <0>         0.0867
     43 H17        -4.4519   -4.7313   -1.5695 H         1 <0>         0.0824
     44 H18        -4.6599   -7.0048   -1.3305 H         1 <0>         0.1213
     45 H19        -4.8750   -7.7688    0.2634 H         1 <0>         0.0980
     46 H20        -6.6113   -5.5444   -0.9032 H         1 <0>         0.1324
     47 H21        -7.0686   -7.2587   -0.7643 H         1 <0>         0.1397
     48 H22        -7.9278   -6.0223    1.0524 H         1 <0>         0.4336
     49 H23        -6.3500   -4.2070    1.0073 H         1 <0>         0.1336
     50 H24        -6.6038   -4.8787    2.6357 H         1 <0>         0.1375
     51 H25        -4.5862   -6.2896    2.3767 H         1 <0>         0.0971
     52 H26        -4.1843   -4.5701    2.1480 H         1 <0>         0.1223
     53 H27        -2.5361   -8.0476    2.2010 H         1 <0>         0.4038
     54 H28        -0.7125   -6.8465    3.9922 H         1 <0>         0.0859
     55 H29        -2.3645   -6.4784    4.5430 H         1 <0>         0.0763
     56 H30        -0.3190   -8.6838    6.1413 H         1 <0>         0.0911
     57 H31        -1.7108   -7.6259    6.5565 H         1 <0>         0.0841
     58 H32        -1.6088  -10.6945    6.4443 H         1 <0>         0.0814
     59 H33        -2.3591   -9.6484    7.6961 H         1 <0>         0.0883
     60 H34        -3.7721  -10.7627    5.5644 H         1 <0>         0.0724
     61 H35        -4.2597   -9.2663    6.4058 H         1 <0>         0.0714
     62 H36        -6.7675   -7.0474    1.6113 H         1 <0>         0.4284
@<TRIPOS>BOND
     1    1    2 1
     2    1   30 1
     3    1   31 1
     4    1   32 1
     5    2    3 1
     6    2   33 1
     7    2   34 1
     8    3    4 1
     9    3    5 1
    10    3    6 1
    11    5   35 1
    12    5   36 1
    13    5   37 1
    14    6    7 1
    15    6   38 1
    16    6   39 1
    17    7    8 2
    18    7    9 am
    19    9   14 1
    20    9   10 1
    21   10   11 1
    22   10   40 1
    23   10   41 1
    24   11   12 1
    25   11   13 1
    26   11   20 1
    27   13   19 1
    28   13   14 1
    29   13   15 1
    30   14   42 1
    31   14   43 1
    32   15   16 1
    33   15   44 1
    34   15   45 1
    35   16   17 1
    36   16   46 1
    37   16   47 1
    38   17   18 1
    39   17   48 1
    40   17   62 1
    41   18   19 1
    42   18   49 1
    43   18   50 1
    44   19   51 1
    45   19   52 1
    46   20   21 2
    47   20   22 am
    48   22   23 1
    49   22   53 1
    50   23   24 1
    51   23   54 1
    52   23   55 1
    53   24   25 1
    54   24   29 1
    55   24   26 1
    56   26   27 1
    57   26   56 1
    58   26   57 1
    59   27   28 1
    60   27   58 1
    61   27   59 1
    62   28   29 1
    63   28   60 1
    64   28   61 1
