@<TRIPOS>MOLECULE
ZINC39976516
   37    40     0     0     0
SMALL
USER_CHARGES

@<TRIPOS>ATOM
      1 C1         -0.0031    1.3709    0.0047 C.ar      1 <0>        -0.0339
      2 C2          1.1689    2.0810   -0.0038 C.ar      1 <0>        -0.1598
      3 C3          2.4175    1.4393    0.1228 C.ar      1 <0>         0.2102
      4 C4          2.3944    0.0438    0.2575 C.ar      1 <0>        -0.1575
      5 C5          1.2293   -0.6796    0.2681 C.ar      1 <0>         0.0301
      6 C6          0.0002   -0.0198    0.1402 C.ar      1 <0>        -0.1670
      7 C7         -1.2650   -0.7778    0.1490 C.2       1 <0>         0.5709
      8 O1         -1.2480   -1.9880    0.2676 O.2       1 <0>        -0.5144
      9 N1         -2.4400   -0.1293    0.0255 N.am      1 <0>        -0.6817
     10 C8         -3.6327   -0.8547   -0.0722 C.2       1 <0>         0.1344
     11 C9         -4.6056   -0.6160    0.8242 C.2       1 <0>        -0.1224
     12 C10        -5.9085   -1.3479    0.6958 C.3       1 <0>         0.0720
     13 H1         -6.6039   -0.7609    0.0959 H         1 <0>         0.1444
     14 C11        -5.6275   -2.6709    0.0087 C.2       1 <0>        -0.0903
     15 C12        -6.2378   -3.6034    0.7603 C.2       1 <0>        -0.1727
     16 C13        -6.7343   -3.0029    1.9394 C.2       1 <0>         0.1417
     17 N2         -6.5345   -1.7145    1.9583 N.2       1 <0>        -0.4714
     18 C14        -4.7573   -2.7793   -1.0944 C.2       1 <0>        -0.0926
     19 C15        -3.7690   -1.8362   -1.1499 C.2       1 <0>        -0.0838
     20 S1          4.1019   -0.4362    0.3920 S.3       1 <0>        -0.0500
     21 C16         4.8503    1.2375    0.2674 C.3       1 <0>         0.1209
     22 H2          5.4907    1.3164   -0.6110 H         1 <0>         0.1578
     23 N3          3.6514    2.0744    0.1248 N.pl3     1 <0>        -0.7185
     24 C17         5.6214    1.5919    1.5405 C.3       1 <0>         0.4488
     25 F1          6.6644    0.6777    1.7236 F         1 <0>        -0.1644
     26 F2          6.1479    2.8827    1.4227 F         1 <0>        -0.1726
     27 F3          4.7569    1.5393    2.6392 F         1 <0>        -0.1651
     28 H3         -0.9431    1.8941   -0.0903 H         1 <0>         0.1353
     29 H4          1.1352    3.1552   -0.1101 H         1 <0>         0.1358
     30 H5          1.2593   -1.7540    0.3739 H         1 <0>         0.1484
     31 H6         -2.4589    0.8403    0.0044 H         1 <0>         0.4085
     32 H7         -4.4513    0.0919    1.6251 H         1 <0>         0.1376
     33 H8         -6.3342   -4.6479    0.5031 H         1 <0>         0.1472
     34 H9         -7.2241   -3.5479    2.7329 H         1 <0>         0.1738
     35 H10        -4.8657   -3.5490   -1.8442 H         1 <0>         0.1461
     36 H11        -3.0859   -1.8173   -1.9862 H         1 <0>         0.1303
     37 H12         3.7199    3.0378    0.0348 H         1 <0>         0.4243
@<TRIPOS>BOND
     1    1    6 ar
     2    1    2 ar
     3    1   28 1
     4    2    3 ar
     5    2   29 1
     6    3   23 1
     7    3    4 ar
     8    4    5 ar
     9    4   20 1
    10    5    6 ar
    11    5   30 1
    12    6    7 1
    13    7    8 2
    14    7    9 am
    15    9   10 1
    16    9   31 1
    17   10   19 1
    18   10   11 2
    19   11   12 1
    20   11   32 1
    21   12   13 1
    22   12   17 1
    23   12   14 1
    24   14   15 2
    25   14   18 1
    26   15   16 1
    27   15   33 1
    28   16   17 2
    29   16   34 1
    30   18   19 2
    31   18   35 1
    32   19   36 1
    33   20   21 1
    34   21   22 1
    35   21   23 1
    36   21   24 1
    37   23   37 1
    38   24   25 1
    39   24   26 1
    40   24   27 1
