@<TRIPOS>MOLECULE
ZINC14183524
   36    37     0     0     0
SMALL
USER_CHARGES
N-[2-[(3-chloro-2-methyl-phenyl)amino]-2-oxo-ethyl]-5,6-dihydro-1,4-dioxine-2-carboxamide
@<TRIPOS>ATOM
      1 C1          3.3594    2.1527    1.2283 C.3       1 <0>        -0.1227
      2 C2          2.2319    1.3963    0.5745 C.ar      1 <0>        -0.1052
      3 C3          1.1777    2.0870   -0.0090 C.ar      1 <0>         0.1559
      4 C4          0.1408    1.3865   -0.6109 C.ar      1 <0>        -0.1217
      5 C5          0.1601    0.0053   -0.6280 C.ar      1 <0>        -0.0910
      6 C6          1.2103   -0.6803   -0.0467 C.ar      1 <0>        -0.1212
      7 C7          2.2458    0.0145    0.5543 C.ar      1 <0>        -0.0179
      8 Cl1         3.5630   -0.8504    1.2826 Cl        1 <0>        -0.0601
      9 N1          1.1605    3.4860    0.0097 N.am      1 <0>        -0.6611
     10 C8         -0.0109    4.1467   -0.0773 C.2       1 <0>         0.5127
     11 O1         -1.0561    3.5315   -0.0708 O.2       1 <0>        -0.5115
     12 C9         -0.0221    5.6500   -0.1827 C.3       1 <0>         0.1053
     13 N2         -1.4061    6.1236   -0.2640 N.am      1 <0>        -0.7164
     14 C10        -1.6620    7.4429   -0.3651 C.2       1 <0>         0.5828
     15 O2         -0.7432    8.2411   -0.3887 O.2       1 <0>        -0.5168
     16 C11        -3.0448    7.9161   -0.4463 C.2       1 <0>        -0.0750
     17 C12        -4.0440    7.0238   -0.4244 C.2       1 <0>         0.0170
     18 O3         -5.3369    7.4050   -0.4989 O.3       1 <0>        -0.2971
     19 C13        -5.6207    8.7838   -0.2339 C.3       1 <0>         0.0126
     20 C14        -4.5930    9.6363   -0.9920 C.3       1 <0>         0.0187
     21 O4         -3.2856    9.2529   -0.5481 O.3       1 <0>        -0.2851
     22 H1          4.1376    2.3532    0.4919 H         1 <0>         0.0790
     23 H2          2.9827    3.0956    1.6247 H         1 <0>         0.0679
     24 H3          3.7736    1.5564    2.0413 H         1 <0>         0.0811
     25 H4         -0.6779    1.9212   -1.0693 H         1 <0>         0.1514
     26 H5         -0.6465   -0.5395   -1.0959 H         1 <0>         0.1375
     27 H6          1.2228   -1.7601   -0.0612 H         1 <0>         0.1360
     28 H7          1.9917    3.9803    0.0853 H         1 <0>         0.4176
     29 H8          0.4577    6.0794    0.6968 H         1 <0>         0.1096
     30 H9          0.5196    5.9555   -1.0778 H         1 <0>         0.1111
     31 H10        -2.1382    5.4875   -0.2451 H         1 <0>         0.4110
     32 H11        -3.8093    5.9729   -0.3408 H         1 <0>         0.1796
     33 H12        -5.5417    8.9769    0.8360 H         1 <0>         0.0847
     34 H13        -6.6259    9.0257   -0.5790 H         1 <0>         0.1255
     35 H14        -4.7600   10.6919   -0.7775 H         1 <0>         0.1257
     36 H15        -4.6852    9.4583   -2.0634 H         1 <0>         0.0801
@<TRIPOS>BOND
     1    1    2 1
     2    1   22 1
     3    1   23 1
     4    1   24 1
     5    2    7 ar
     6    2    3 ar
     7    3    4 ar
     8    3    9 1
     9    4    5 ar
    10    4   25 1
    11    5    6 ar
    12    5   26 1
    13    6    7 ar
    14    6   27 1
    15    7    8 1
    16    9   10 am
    17    9   28 1
    18   10   11 2
    19   10   12 1
    20   12   13 1
    21   12   29 1
    22   12   30 1
    23   13   14 am
    24   13   31 1
    25   14   15 2
    26   14   16 1
    27   16   21 1
    28   16   17 2
    29   17   18 1
    30   17   32 1
    31   18   19 1
    32   19   20 1
    33   19   33 1
    34   19   34 1
    35   20   21 1
    36   20   35 1
    37   20   36 1
