@<TRIPOS>MOLECULE
ZINC46777883
   40    42     0     0     0
SMALL
USER_CHARGES

@<TRIPOS>ATOM
      1 C1         -0.0184    1.5028    0.0103 C.3       1 <0>        -0.0914
      2 C2          0.0021   -0.0041    0.0020 C.2       1 <0>         0.1533
      3 C3          0.0060   -0.7217   -1.1737 C.2       1 <0>        -0.2867
      4 S1          0.0318   -2.3903   -0.5375 S.3       1 <0>         0.1560
      5 C4          0.0348   -2.0122    1.1026 C.2       1 <0>         0.0537
      6 N1          0.0225   -0.6986    1.1125 N.2       1 <0>        -0.5216
      7 C5         -0.0077   -0.2476   -2.5617 C.2       1 <0>         0.6195
      8 O1         -0.0255    0.9462   -2.7967 O.2       1 <0>        -0.5179
      9 N2         -0.0007   -1.1342   -3.5768 N.am      1 <0>        -0.7138
     10 C6         -0.0143   -0.6606   -4.9631 C.3       1 <0>         0.2417
     11 H1          0.5620    0.2615   -5.0377 H         1 <0>         0.1066
     12 C7         -1.4574   -0.3967   -5.3976 C.3       1 <0>        -0.1596
     13 C8          0.5961   -1.7084   -5.8579 C.2       1 <0>         0.1551
     14 N3          0.3499   -2.9915   -5.8304 N.2       1 <0>        -0.2804
     15 N4          1.0409   -3.5856   -6.7401 N.2       1 <0>        -0.2880
     16 C9          1.7533   -2.7087   -7.3882 C.2       1 <0>         0.1894
     17 N5          1.4965   -1.4967   -6.8431 N.pl3     1 <0>        -0.4584
     18 C10         2.0935   -0.2203   -7.2371 C.3       1 <0>         0.0978
     19 C11         2.4807   -0.2757   -8.7175 C.3       1 <0>        -0.1404
     20 C12         3.9053   -0.8104   -8.8576 C.3       1 <0>        -0.1262
     21 C13         4.0017   -2.2272   -8.2999 C.3       1 <0>        -0.1250
     22 C14         2.6883   -2.9674   -8.5412 C.3       1 <0>        -0.0386
     23 H2          1.0042    1.8801    0.0026 H         1 <0>         0.0823
     24 H3         -0.5455    1.8639   -0.8728 H         1 <0>         0.0962
     25 H4         -0.5286    1.8543    0.9071 H         1 <0>         0.0771
     26 H5          0.0481   -2.6877    1.9451 H         1 <0>         0.2270
     27 H6          0.0135   -2.0858   -3.3895 H         1 <0>         0.4105
     28 H7         -2.0337   -1.3189   -5.3230 H         1 <0>         0.0725
     29 H8         -1.8989    0.3611   -4.7504 H         1 <0>         0.0786
     30 H9         -1.4676   -0.0444   -6.4291 H         1 <0>         0.0697
     31 H10         1.3728    0.5822   -7.0796 H         1 <0>         0.0992
     32 H11         2.9829   -0.0338   -6.6353 H         1 <0>         0.0934
     33 H12         1.7925   -0.9338   -9.2479 H         1 <0>         0.0822
     34 H13         2.4256    0.7256   -9.1445 H         1 <0>         0.0921
     35 H14         4.1843   -0.8189   -9.9113 H         1 <0>         0.0761
     36 H15         4.5887   -0.1612   -8.3103 H         1 <0>         0.0714
     37 H16         4.8137   -2.7584   -8.7965 H         1 <0>         0.0836
     38 H17         4.1989   -2.1830   -7.2288 H         1 <0>         0.0644
     39 H18         2.8773   -4.0377   -8.6241 H         1 <0>         0.1036
     40 H19         2.2381   -2.6029   -9.4645 H         1 <0>         0.0948
@<TRIPOS>BOND
     1    1    2 1
     2    1   23 1
     3    1   24 1
     4    1   25 1
     5    2    6 1
     6    2    3 2
     7    3    4 1
     8    3    7 1
     9    4    5 1
    10    5    6 2
    11    5   26 1
    12    7    8 2
    13    7    9 am
    14    9   10 1
    15    9   27 1
    16   10   11 1
    17   10   12 1
    18   10   13 1
    19   12   28 1
    20   12   29 1
    21   12   30 1
    22   13   17 1
    23   13   14 2
    24   14   15 1
    25   15   16 2
    26   16   22 1
    27   16   17 1
    28   17   18 1
    29   18   19 1
    30   18   31 1
    31   18   32 1
    32   19   20 1
    33   19   33 1
    34   19   34 1
    35   20   21 1
    36   20   35 1
    37   20   36 1
    38   21   22 1
    39   21   37 1
    40   21   38 1
    41   22   39 1
    42   22   40 1
