@<TRIPOS>MOLECULE
ZINC40974630
   59    62     0     0     0
SMALL
USER_CHARGES

@<TRIPOS>ATOM
      1 C1         -1.2233   -1.6370   -4.3186 C.3       1 <0>        -0.1670
      2 C2         -0.9809   -2.6278   -3.2093 C.2       1 <0>         0.5146
      3 O1          0.1241   -3.1016   -3.0502 O.2       1 <0>        -0.4932
      4 N1         -1.9921   -2.9874   -2.3941 N.am      1 <0>        -0.6131
      5 C3         -1.7691   -3.8988   -1.3738 C.2       1 <0>         0.3641
      6 N2         -2.6181   -4.3709   -0.4918 N.2       1 <0>        -0.5472
      7 C4         -2.2587   -5.2639    0.4563 C.ar      1 <0>         0.1138
      8 C5         -3.0710   -5.8485    1.4615 C.ar      1 <0>         0.1221
      9 C6         -2.5401   -6.7482    2.3558 C.ar      1 <0>        -0.0949
     10 C7         -1.2026   -7.1129    2.3075 C.ar      1 <0>        -0.0950
     11 C8         -0.3839   -6.5612    1.3397 C.ar      1 <0>        -0.0424
     12 C9         -0.9039   -5.6615    0.4408 C.ar      1 <0>        -0.1782
     13 S1         -0.2539   -4.7359   -0.9294 S.3       1 <0>         0.1243
     14 O2         -4.3864   -5.5158    1.5419 O.3       1 <0>        -0.2266
     15 C10        -5.2506   -6.1289    0.6969 C.ar      1 <0>         0.3839
     16 C11        -6.5915   -5.7590    0.6683 C.ar      1 <0>        -0.2200
     17 C12        -7.4395   -6.4203   -0.2195 C.ar      1 <0>         0.2390
     18 N3         -6.9363   -7.3761   -1.0025 N.ar      1 <0>        -0.5470
     19 C13        -5.6605   -7.6946   -0.9428 C.ar      1 <0>         0.3423
     20 N4         -4.8278   -7.0884   -0.1203 N.ar      1 <0>        -0.5543
     21 C14        -8.8763   -6.0675   -0.2917 C.ar      1 <0>        -0.1268
     22 C15        -9.2761   -4.7332   -0.3863 C.ar      1 <0>         0.0006
     23 C16       -10.6315   -4.4548   -0.4516 C.ar      1 <0>        -0.1658
     24 C17       -11.5415   -5.4949   -0.4217 C.ar      1 <0>         0.1033
     25 N5        -11.1418   -6.7488   -0.3316 N.ar      1 <0>        -0.5067
     26 C18        -9.8587   -7.0684   -0.2722 C.ar      1 <0>         0.4404
     27 N6         -9.4837   -8.4000   -0.1842 N.pl3     1 <0>        -0.7110
     28 C19       -10.5057   -9.4419   -0.0566 C.3       1 <0>         0.1052
     29 C20        -9.8299  -10.8124    0.0212 C.3       1 <0>        -0.0249
     30 N7        -10.8547  -11.8571    0.1491 N.4       1 <0>        -0.3818
     31 C21       -11.6706  -11.8948   -1.0719 C.3       1 <0>        -0.0559
     32 C22       -10.2043  -13.1598    0.3438 C.3       1 <0>        -0.0467
     33 C23       -13.0158   -5.1910   -0.4929 C.3       1 <0>         0.5229
     34 F1        -13.4249   -5.1761   -1.8307 F         1 <0>        -0.1658
     35 F2        -13.7286   -6.1742    0.2017 F         1 <0>        -0.1655
     36 F3        -13.2626   -3.9407    0.0842 F         1 <0>        -0.1633
     37 H1         -0.2959   -1.4716   -4.8671 H         1 <0>         0.1097
     38 H2         -1.9814   -2.0289   -4.9966 H         1 <0>         0.1010
     39 H3         -1.5677   -0.6938   -3.8945 H         1 <0>         0.1024
     40 H4         -2.8759   -2.6085   -2.5214 H         1 <0>         0.4292
     41 H5         -3.1784   -7.1801    3.1124 H         1 <0>         0.1397
     42 H6         -0.8045   -7.8209    3.0194 H         1 <0>         0.1492
     43 H7          0.6594   -6.8358    1.2906 H         1 <0>         0.1423
     44 H8         -6.9657   -4.9806    1.3168 H         1 <0>         0.1591
     45 H9         -5.2840   -8.4732   -1.5898 H         1 <0>         0.2038
     46 H10        -8.5464   -3.9373   -0.4076 H         1 <0>         0.1584
     47 H11       -10.9744   -3.4333   -0.5250 H         1 <0>         0.1600
     48 H12        -8.5446   -8.6420   -0.2070 H         1 <0>         0.4222
     49 H13       -11.0870   -9.2715    0.8496 H         1 <0>         0.0874
     50 H14       -11.1661   -9.4111   -0.9231 H         1 <0>         0.0910
     51 H15        -9.2485  -10.9827   -0.8850 H         1 <0>         0.1384
     52 H16        -9.1695  -10.8432    0.8877 H         1 <0>         0.1355
     53 H17       -12.4310  -12.6700   -0.9769 H         1 <0>         0.1288
     54 H18       -12.1532  -10.9282   -1.2164 H         1 <0>         0.1272
     55 H19       -11.0330  -12.1142   -1.9283 H         1 <0>         0.1248
     56 H20        -9.5989  -13.1318    1.2498 H         1 <0>         0.1242
     57 H21       -10.9647  -13.9349    0.4388 H         1 <0>         0.1285
     58 H22        -9.5667  -13.3792   -0.5126 H         1 <0>         0.1237
     59 H23       -11.4449  -11.6540    0.9419 H         1 <0>         0.4301
@<TRIPOS>BOND
     1    1    2 1
     2    1   37 1
     3    1   38 1
     4    1   39 1
     5    2    3 2
     6    2    4 am
     7    4    5 1
     8    4   40 1
     9    5   13 1
    10    5    6 2
    11    6    7 1
    12    7   12 ar
    13    7    8 ar
    14    8    9 ar
    15    8   14 1
    16    9   10 ar
    17    9   41 1
    18   10   11 ar
    19   10   42 1
    20   11   12 ar
    21   11   43 1
    22   12   13 1
    23   14   15 1
    24   15   20 ar
    25   15   16 ar
    26   16   17 ar
    27   16   44 1
    28   17   18 ar
    29   17   21 1
    30   18   19 ar
    31   19   20 ar
    32   19   45 1
    33   21   26 ar
    34   21   22 ar
    35   22   23 ar
    36   22   46 1
    37   23   24 ar
    38   23   47 1
    39   24   25 ar
    40   24   33 1
    41   25   26 ar
    42   26   27 1
    43   27   28 1
    44   27   48 1
    45   28   29 1
    46   28   49 1
    47   28   50 1
    48   29   30 1
    49   29   51 1
    50   29   52 1
    51   30   31 1
    52   30   32 1
    53   30   59 1
    54   31   53 1
    55   31   54 1
    56   31   55 1
    57   32   56 1
    58   32   57 1
    59   32   58 1
    60   33   34 1
    61   33   35 1
    62   33   36 1
