@<TRIPOS>MOLECULE
ZINC19890114
   56    59     0     0     0
SMALL
USER_CHARGES

@<TRIPOS>ATOM
      1 C1          5.5313    3.3554    3.5918 C.3       1 <0>        -0.1557
      2 C2          5.2211    1.8913    3.2736 C.3       1 <0>         0.0505
      3 O1          4.1484    1.4405    4.1032 O.3       1 <0>        -0.3065
      4 C3          3.7460    0.1515    3.9457 C.ar      1 <0>         0.1663
      5 C4          4.3757   -0.6627    3.0155 C.ar      1 <0>        -0.1989
      6 C5          3.9677   -1.9721    2.8555 C.ar      1 <0>        -0.0462
      7 C6          2.9273   -2.4737    3.6255 C.ar      1 <0>         0.0360
      8 C7          2.2975   -1.6586    4.5561 C.ar      1 <0>        -0.0509
      9 C8          2.7097   -0.3509    4.7191 C.ar      1 <0>        -0.1417
     10 N1          2.5119   -3.8044    3.4628 N.am      1 <0>        -0.5077
     11 C9          1.5650   -4.1660    2.5883 C.2       1 <0>         0.5186
     12 O2          0.9665   -3.4133    1.8501 O.2       1 <0>        -0.4186
     13 C10         1.3604   -5.6632    2.6669 C.3       1 <0>        -0.1678
     14 C11         2.3639   -6.1088    3.7500 C.3       1 <0>        -0.0145
     15 H1          3.0962   -6.8002    3.3332 H         1 <0>         0.1934
     16 C12         3.0340   -4.8173    4.1655 C.2       1 <0>         0.5154
     17 O3          3.9039   -4.7156    5.0037 O.2       1 <0>        -0.4218
     18 N2          1.6614   -6.7239    4.8840 N.4       1 <0>        -0.4903
     19 C13         2.6435   -7.2457    5.8437 C.3       1 <0>         0.0085
     20 C14         3.4382   -8.3808    5.1938 C.3       1 <0>        -0.1548
     21 C15         4.4845   -8.8992    6.1854 C.3       1 <0>         0.1191
     22 N3          3.8074   -9.2746    7.4341 N.am      1 <0>        -0.6200
     23 C16         2.9446   -8.2857    8.0948 C.3       1 <0>         0.1025
     24 C17         1.9156   -7.7742    7.0818 C.3       1 <0>        -0.1569
     25 C18         3.9743  -10.5028    7.9633 C.2       1 <0>         0.6154
     26 O4          4.7775  -11.2734    7.4712 O.2       1 <0>        -0.5045
     27 C19         3.1884  -10.9105    9.1315 C.2       1 <0>        -0.2746
     28 C20         3.5380  -11.7669   10.1644 C.2       1 <0>        -0.0532
     29 C21         2.5802  -11.9584   11.1312 C.2       1 <0>        -0.1811
     30 C22         1.3908  -11.3173   11.0167 C.2       1 <0>        -0.2156
     31 S1          1.5369  -10.4286    9.5986 S.3       1 <0>         0.1957
     32 H2          5.8191    3.4464    4.6392 H         1 <0>         0.0695
     33 H3          6.3495    3.6992    2.9590 H         1 <0>         0.0845
     34 H4          4.6464    3.9634    3.4039 H         1 <0>         0.0699
     35 H5          4.9333    1.8003    2.2262 H         1 <0>         0.0681
     36 H6          6.1060    1.2833    3.4615 H         1 <0>         0.0676
     37 H7          5.1849   -0.2723    2.4162 H         1 <0>         0.1435
     38 H8          4.4576   -2.6058    2.1311 H         1 <0>         0.1317
     39 H9          1.4880   -2.0485    5.1553 H         1 <0>         0.1333
     40 H10         2.2226    0.2821    5.4460 H         1 <0>         0.1470
     41 H11         0.3397   -5.8955    2.9708 H         1 <0>         0.1457
     42 H12         1.5935   -6.1329    1.7113 H         1 <0>         0.1639
     43 H13         1.0834   -6.0320    5.3369 H         1 <0>         0.4322
     44 H14         3.3250   -6.4470    6.1365 H         1 <0>         0.1594
     45 H15         2.7607   -9.1907    4.9232 H         1 <0>         0.0987
     46 H16         3.9376   -8.0093    4.2989 H         1 <0>         0.1014
     47 H17         4.9858   -9.7710    5.7651 H         1 <0>         0.1175
     48 H18         5.2159   -8.1166    6.3872 H         1 <0>         0.0875
     49 H19         2.4299   -8.7529    8.9344 H         1 <0>         0.1097
     50 H20         3.5504   -7.4531    8.4524 H         1 <0>         0.0929
     51 H21         1.3312   -6.9711    7.5308 H         1 <0>         0.1080
     52 H22         1.2524   -8.5898    6.7934 H         1 <0>         0.0988
     53 H23         4.5016  -12.2528   10.2064 H         1 <0>         0.1522
     54 H24         2.7720  -12.6107   11.9703 H         1 <0>         0.1449
     55 H25         0.5450  -11.3635   11.6866 H         1 <0>         0.1929
     56 H26         1.0822   -7.4800    4.5508 H         1 <0>         0.4390
@<TRIPOS>BOND
     1    1    2 1
     2    1   32 1
     3    1   33 1
     4    1   34 1
     5    2    3 1
     6    2   35 1
     7    2   36 1
     8    3    4 1
     9    4    9 ar
    10    4    5 ar
    11    5    6 ar
    12    5   37 1
    13    6    7 ar
    14    6   38 1
    15    7    8 ar
    16    7   10 1
    17    8    9 ar
    18    8   39 1
    19    9   40 1
    20   10   16 am
    21   10   11 am
    22   11   12 2
    23   11   13 1
    24   13   14 1
    25   13   41 1
    26   13   42 1
    27   14   15 1
    28   14   16 1
    29   14   18 1
    30   16   17 2
    31   18   19 1
    32   18   43 1
    33   18   56 1
    34   19   24 1
    35   19   20 1
    36   19   44 1
    37   20   21 1
    38   20   45 1
    39   20   46 1
    40   21   22 1
    41   21   47 1
    42   21   48 1
    43   22   23 1
    44   22   25 am
    45   23   24 1
    46   23   49 1
    47   23   50 1
    48   24   51 1
    49   24   52 1
    50   25   26 2
    51   25   27 1
    52   27   31 1
    53   27   28 2
    54   28   29 1
    55   28   53 1
    56   29   30 2
    57   29   54 1
    58   30   31 1
    59   30   55 1
