@<TRIPOS>MOLECULE
ZINC17722945
   45    48     0     0     0
SMALL
USER_CHARGES

@<TRIPOS>ATOM
      1 C1          0.4954    0.2078   -1.1649 C.ar      1 <0>        -0.0867
      2 C2          1.6550    0.9574   -1.1964 C.ar      1 <0>        -0.0983
      3 C3          2.0949    1.6018   -0.0536 C.ar      1 <0>        -0.0238
      4 C4          1.3748    1.4965    1.1234 C.ar      1 <0>        -0.0986
      5 C5          0.2146    0.7481    1.1599 C.ar      1 <0>        -0.0840
      6 C6         -0.2290    0.1011    0.0146 C.ar      1 <0>         0.1101
      7 N1         -1.4067   -0.6594    0.0491 N.am      1 <0>        -0.5252
      8 C7         -2.6183   -0.1119    0.2057 C.2       1 <0>         0.5313
      9 O1         -2.8425    1.0726    0.3329 O.2       1 <0>        -0.4601
     10 C8         -3.6636   -1.2059    0.1983 C.3       1 <0>        -0.1399
     11 C9         -2.8373   -2.4942    0.0082 C.3       1 <0>         0.0327
     12 H1         -3.1192   -2.9979   -0.9165 H         1 <0>         0.1716
     13 C10        -1.4124   -1.9922   -0.0774 C.2       1 <0>         0.5140
     14 O2         -0.4313   -2.6870   -0.2332 O.2       1 <0>        -0.4591
     15 N2         -3.0089   -3.3928    1.1576 N.3       1 <0>        -0.2963
     16 C11        -2.2251   -4.6233    0.9854 C.3       1 <0>        -0.0077
     17 H2         -1.1588   -4.3981    0.9676 H         1 <0>         0.1337
     18 C12        -2.5480   -5.6336    2.1051 C.3       1 <0>        -0.1481
     19 C13        -3.1123   -6.8224    1.3582 C.2       1 <0>         0.5337
     20 O3         -3.4985   -7.8526    1.8672 O.2       1 <0>        -0.4544
     21 N3         -3.1181   -6.5560    0.0462 N.am      1 <0>        -0.5238
     22 C14        -2.6381   -5.3453   -0.2786 C.2       1 <0>         0.5487
     23 O4         -2.5502   -4.8996   -1.4025 O.2       1 <0>        -0.4493
     24 C15        -3.5853   -7.4678   -0.9113 C.ar      1 <0>         0.1075
     25 C16        -2.6978   -8.0568   -1.8016 C.ar      1 <0>        -0.0854
     26 C17        -3.1603   -8.9549   -2.7435 C.ar      1 <0>        -0.0980
     27 C18        -4.5071   -9.2679   -2.8000 C.ar      1 <0>        -0.0223
     28 C19        -5.3936   -8.6821   -1.9136 C.ar      1 <0>        -0.0980
     29 C20        -4.9351   -7.7873   -0.9666 C.ar      1 <0>        -0.0827
     30 Cl1        -5.0854  -10.3967   -3.9853 Cl        1 <0>        -0.0554
     31 O5         -2.6580   -2.7182    2.4074 O.3       1 <0>        -0.4063
     32 Cl2         3.5529    2.5433   -0.0963 Cl        1 <0>        -0.0569
     33 H3          0.1500   -0.2913   -2.0582 H         1 <0>         0.1368
     34 H4          2.2190    1.0404   -2.1137 H         1 <0>         0.1447
     35 H5          1.7205    1.9998    2.0143 H         1 <0>         0.1447
     36 H6         -0.3468    0.6659    2.0788 H         1 <0>         0.1375
     37 H7         -4.1999   -1.2306    1.1469 H         1 <0>         0.1436
     38 H8         -4.3566   -1.0687   -0.6318 H         1 <0>         0.1341
     39 H9         -1.6418   -5.9131    2.6425 H         1 <0>         0.1359
     40 H10        -3.2901   -5.2231    2.7898 H         1 <0>         0.1370
     41 H11        -1.6467   -7.8126   -1.7581 H         1 <0>         0.1374
     42 H12        -2.4703   -9.4131   -3.4366 H         1 <0>         0.1452
     43 H13        -6.4443   -8.9278   -1.9596 H         1 <0>         0.1458
     44 H14        -5.6268   -7.3335   -0.2723 H         1 <0>         0.1391
     45 H15        -2.7555   -3.2720    3.1941 H         1 <0>         0.3951
@<TRIPOS>BOND
     1    1    6 ar
     2    1    2 ar
     3    1   33 1
     4    2    3 ar
     5    2   34 1
     6    3    4 ar
     7    3   32 1
     8    4    5 ar
     9    4   35 1
    10    5    6 ar
    11    5   36 1
    12    6    7 1
    13    7   13 am
    14    7    8 am
    15    8    9 2
    16    8   10 1
    17   10   11 1
    18   10   37 1
    19   10   38 1
    20   11   12 1
    21   11   13 1
    22   11   15 1
    23   13   14 2
    24   15   16 1
    25   15   31 1
    26   16   17 1
    27   16   22 1
    28   16   18 1
    29   18   19 1
    30   18   39 1
    31   18   40 1
    32   19   20 2
    33   19   21 am
    34   21   22 am
    35   21   24 1
    36   22   23 2
    37   24   29 ar
    38   24   25 ar
    39   25   26 ar
    40   25   41 1
    41   26   27 ar
    42   26   42 1
    43   27   28 ar
    44   27   30 1
    45   28   29 ar
    46   28   43 1
    47   29   44 1
    48   31   45 1
