@<TRIPOS>MOLECULE
ZINC01121846
   51    53     0     0     0
SMALL
USER_CHARGES
N-[[4-[(3,5-dimethyl-1-piperidyl)sulfonyl]phenyl]thiocarbamoyl]furan-2-carboxamide
@<TRIPOS>ATOM
      1 C1         -2.0887    0.9008   -0.4249 C.3       1 <0>        -0.1549
      2 C2         -0.6427    1.3974   -0.3662 C.3       1 <0>        -0.1072
      3 H1         -0.0459    0.8701   -1.1104 H         1 <0>         0.0837
      4 C3         -0.0688    1.1350    1.0281 C.3       1 <0>        -0.1072
      5 C4         -0.9258    1.8482    2.0765 C.3       1 <0>        -0.1098
      6 H2         -1.9532    1.4902    2.0114 H         1 <0>         0.0788
      7 C5         -0.8925    3.3576    1.8164 C.3       1 <0>         0.1232
      8 N1         -1.3054    3.6072    0.4287 N.pl3     1 <0>        -0.9934
      9 C6         -0.6066    2.9016   -0.6541 C.3       1 <0>         0.1233
     10 S1         -2.5346    4.6644    0.0913 S.o2      1 <0>         2.6879
     11 O1         -2.6133    5.5603    1.1915 O.2       1 <0>        -0.9504
     12 O2         -2.3313    5.1114   -1.2421 O.2       1 <0>        -0.9529
     13 C7         -4.0330    3.7373    0.0886 C.ar      1 <0>        -0.6715
     14 C8         -4.4870    3.1631   -1.0846 C.ar      1 <0>        -0.0082
     15 C9         -5.6581    2.4311   -1.0889 C.ar      1 <0>        -0.1408
     16 C10        -6.3860    2.2815    0.0845 C.ar      1 <0>         0.1818
     17 C11        -5.9302    2.8642    1.2599 C.ar      1 <0>        -0.0958
     18 C12        -4.7554    3.5903    1.2586 C.ar      1 <0>        -0.0088
     19 N2         -7.5752    1.5452    0.0825 N.pl3     1 <0>        -0.6271
     20 C13        -8.6471    1.9944    0.7649 C.2       1 <0>         0.5068
     21 S2         -8.6007    3.5321    1.5162 S.2       1 <0>        -0.4605
     22 N3         -9.7556    1.2331    0.8559 N.am      1 <0>        -0.6352
     23 C14       -10.8275    1.6824    1.5383 C.2       1 <0>         0.5842
     24 O3        -10.7945    2.7752    2.0722 O.2       1 <0>        -0.3817
     25 C15       -12.0327    0.8547    1.6372 C.2       1 <0>        -0.0966
     26 C16       -13.1833    1.1871    2.2945 C.2       1 <0>        -0.0972
     27 C17       -14.0672    0.1096    2.1306 C.2       1 <0>        -0.2233
     28 C18       -13.4263   -0.8217    1.3899 C.2       1 <0>         0.0071
     29 O4        -12.2028   -0.3669    1.0901 O.3       1 <0>        -0.1708
     30 C19        -0.3708    1.5585    3.4726 C.3       1 <0>        -0.1488
     31 H3         -2.6850    1.4296    0.3186 H         1 <0>         0.0616
     32 H4         -2.4970    1.0878   -1.4181 H         1 <0>         0.0542
     33 H5         -2.1142   -0.1689   -0.2172 H         1 <0>         0.0558
     34 H6         -0.0707    0.0631    1.2257 H         1 <0>         0.0652
     35 H7          0.9529    1.5116    1.0770 H         1 <0>         0.0663
     36 H8          0.1193    3.7328    1.9698 H         1 <0>         0.0775
     37 H9         -1.5769    3.8630    2.4978 H         1 <0>         0.0914
     38 H10         0.4285    3.2396   -0.7022 H         1 <0>         0.0776
     39 H11        -1.1038    3.1040   -1.6028 H         1 <0>         0.0911
     40 H12        -3.9229    3.2838   -1.9977 H         1 <0>         0.1449
     41 H13        -6.0096    1.9788   -2.0045 H         1 <0>         0.1362
     42 H14        -6.4938    2.7495    2.1740 H         1 <0>         0.1495
     43 H15        -4.4003    4.0434    2.1724 H         1 <0>         0.1457
     44 H16        -7.6285    0.7112   -0.4100 H         1 <0>         0.4119
     45 H17        -9.7819    0.3619    0.4302 H         1 <0>         0.4164
     46 H18       -13.3753    2.1019    2.8356 H         1 <0>         0.1666
     47 H19       -15.0708    0.0377    2.5230 H         1 <0>         0.1627
     48 H20       -13.8352   -1.7739    1.0857 H         1 <0>         0.2151
     49 H21         0.6561    1.9182    3.5372 H         1 <0>         0.0582
     50 H22        -0.9814    2.0667    4.2189 H         1 <0>         0.0587
     51 H23        -0.3918    0.4843    3.6562 H         1 <0>         0.0583
@<TRIPOS>BOND
     1    1    2 1
     2    1   31 1
     3    1   32 1
     4    1   33 1
     5    2    3 1
     6    2    9 1
     7    2    4 1
     8    4    5 1
     9    4   34 1
    10    4   35 1
    11    5    6 1
    12    5    7 1
    13    5   30 1
    14    7    8 1
    15    7   36 1
    16    7   37 1
    17    8    9 1
    18    8   10 1
    19    9   38 1
    20    9   39 1
    21   10   11 2
    22   10   12 2
    23   10   13 1
    24   13   18 ar
    25   13   14 ar
    26   14   15 ar
    27   14   40 1
    28   15   16 ar
    29   15   41 1
    30   16   17 ar
    31   16   19 1
    32   17   18 ar
    33   17   42 1
    34   18   43 1
    35   19   20 1
    36   19   44 1
    37   20   21 2
    38   20   22 1
    39   22   23 am
    40   22   45 1
    41   23   24 2
    42   23   25 1
    43   25   29 1
    44   25   26 2
    45   26   27 1
    46   26   46 1
    47   27   28 2
    48   27   47 1
    49   28   29 1
    50   28   48 1
    51   30   49 1
    52   30   50 1
    53   30   51 1
