@<TRIPOS>MOLECULE
ZINC41045865
   26    27     0     0     0
SMALL
USER_CHARGES

@<TRIPOS>ATOM
      1 C1         -0.0587    1.4990   -0.2246 C.3       1 <0>        -0.1187
      2 C2         -0.0272   -0.0066   -0.1701 C.ar      1 <0>        -0.0270
      3 C3         -0.1097   -0.7408   -1.3388 C.ar      1 <0>        -0.1681
      4 C4         -0.0813   -2.1225   -1.2953 C.ar      1 <0>        -0.0594
      5 C5          0.0300   -2.7754   -0.0785 C.ar      1 <0>        -0.0034
      6 C6          0.1132   -2.0363    1.0997 C.ar      1 <0>         0.2311
      7 C7          0.0897   -0.6501    1.0475 C.ar      1 <0>        -0.1926
      8 N1          0.2253   -2.6902    2.3317 N.pl3     1 <0>        -0.8692
      9 O1          0.0576   -4.1343   -0.0341 O.3       1 <0>        -0.2313
     10 C8         -1.1124   -4.7886    0.1740 C.ar      1 <0>         0.2599
     11 C9         -1.1263   -6.1759    0.2798 C.ar      1 <0>         0.0429
     12 N2         -2.2662   -6.8091    0.4827 N.ar      1 <0>        -0.4034
     13 C10        -3.3942   -6.1265    0.5852 C.ar      1 <0>         0.0067
     14 C11        -3.3836   -4.7485    0.4805 C.ar      1 <0>         0.0931
     15 N3         -2.2442   -4.1075    0.2823 N.ar      1 <0>        -0.4787
     16 H1          0.9574    1.8803   -0.3264 H         1 <0>         0.0751
     17 H2         -0.6543    1.8193   -1.0795 H         1 <0>         0.0702
     18 H3         -0.5020    1.8866    0.6927 H         1 <0>         0.0678
     19 H4         -0.1969   -0.2337   -2.2884 H         1 <0>         0.1270
     20 H5         -0.1463   -2.6929   -2.2101 H         1 <0>         0.1270
     21 H6          0.1588   -0.0740    1.9585 H         1 <0>         0.1269
     22 H7          0.2452   -3.6594    2.3664 H         1 <0>         0.3978
     23 H8          0.2831   -2.1743    3.1511 H         1 <0>         0.4016
     24 H9         -0.2054   -6.7338    0.1958 H         1 <0>         0.1772
     25 H10        -4.3258   -6.6471    0.7509 H         1 <0>         0.1743
     26 H11        -4.3067   -4.1942    0.5644 H         1 <0>         0.1732
@<TRIPOS>BOND
     1    1    2 1
     2    1   16 1
     3    1   17 1
     4    1   18 1
     5    2    7 ar
     6    2    3 ar
     7    3    4 ar
     8    3   19 1
     9    4    5 ar
    10    4   20 1
    11    5    6 ar
    12    5    9 1
    13    6    7 ar
    14    6    8 1
    15    7   21 1
    16    8   22 1
    17    8   23 1
    18    9   10 1
    19   10   15 ar
    20   10   11 ar
    21   11   12 ar
    22   11   24 1
    23   12   13 ar
    24   13   14 ar
    25   13   25 1
    26   14   15 ar
    27   14   26 1
