@<TRIPOS>MOLECULE
ZINC31175672
   61    64     0     0     0
SMALL
USER_CHARGES
N-[(4-carbamoylphenyl)methyl]-N-cyclopropyl-4-[(3,4-dimethylphenyl)sulfamoyl]benzamide
@<TRIPOS>ATOM
      1 C1          0.2319   -3.4854   -1.8704 C.3       1 <0>        -0.1191
      2 C2          0.3499   -3.0700   -0.4267 C.ar      1 <0>        -0.0765
      3 C3         -0.2192   -1.8832   -0.0015 C.ar      1 <0>        -0.1108
      4 C4         -0.1179   -1.5023    1.3219 C.ar      1 <0>        -0.1133
      5 C5          0.5661   -2.3073    2.2244 C.ar      1 <0>         0.1208
      6 C6          1.1364   -3.4984    1.7940 C.ar      1 <0>        -0.1018
      7 C7          1.0263   -3.8762    0.4700 C.ar      1 <0>        -0.0790
      8 C8          1.6448   -5.1684    0.0022 C.3       1 <0>        -0.1184
      9 N1          0.6750   -1.9224    3.5626 N.pl3     1 <0>        -1.0741
     10 S1          2.1085   -1.3259    4.1386 S.o2      1 <0>         2.6907
     11 O1          3.1138   -2.2611    3.7727 O.2       1 <0>        -0.9463
     12 O2          1.8770   -0.9450    5.4879 O.2       1 <0>        -0.9508
     13 C9          2.4512    0.1558    3.2488 C.ar      1 <0>        -0.6597
     14 C10         1.9002    1.3538    3.6677 C.ar      1 <0>        -0.0155
     15 C11         2.1642    2.5175    2.9752 C.ar      1 <0>        -0.0911
     16 C12         2.9891    2.4843    1.8498 C.ar      1 <0>        -0.0694
     17 C13         3.5421    1.2725    1.4329 C.ar      1 <0>        -0.1251
     18 C14         3.2697    0.1161    2.1340 C.ar      1 <0>        -0.0156
     19 C15         3.2767    3.7276    1.1032 C.2       1 <0>         0.5431
     20 O3          2.3688    4.4736    0.7922 O.2       1 <0>        -0.5114
     21 N2          4.5455    4.0338    0.7674 N.am      1 <0>        -0.5917
     22 C16         5.6235    3.0766    1.0279 C.3       1 <0>         0.1114
     23 C17         6.5542    3.0337   -0.1566 C.ar      1 <0>        -0.0778
     24 C18         6.2613    2.2158   -1.2334 C.ar      1 <0>        -0.1093
     25 C19         7.1066    2.1755   -2.3230 C.ar      1 <0>        -0.0830
     26 C20         8.2649    2.9541   -2.3328 C.ar      1 <0>        -0.1275
     27 C21         8.5572    3.7731   -1.2410 C.ar      1 <0>        -0.0565
     28 C22         7.7008    3.8080   -0.1600 C.ar      1 <0>        -0.1128
     29 C23         9.1780    2.9120   -3.4949 C.2       1 <0>         0.5613
     30 O4         10.1858    3.5915   -3.5008 O.2       1 <0>        -0.5446
     31 N3          8.8928    2.1202   -4.5476 N.am      1 <0>        -0.8726
     32 C24         4.8467    5.3239    0.1420 C.3       1 <0>        -0.0153
     33 C25         3.7862    6.4222    0.2419 C.3       1 <0>        -0.1322
     34 C26         4.0345    5.7167   -1.0937 C.3       1 <0>        -0.1260
     35 H1         -0.3355   -2.7241   -2.4258 H         1 <0>         0.0664
     36 H2         -0.2917   -4.4508   -1.9325 H         1 <0>         0.0732
     37 H3          1.2368   -3.5845   -2.3067 H         1 <0>         0.0724
     38 H4         -0.7472   -1.2560   -0.7044 H         1 <0>         0.1273
     39 H5         -0.5663   -0.5777    1.6542 H         1 <0>         0.1269
     40 H6          1.6649   -4.1286    2.4939 H         1 <0>         0.1345
     41 H7          2.1355   -5.6682    0.8504 H         1 <0>         0.0686
     42 H8          2.3893   -4.9567   -0.7794 H         1 <0>         0.0727
     43 H9          0.8610   -5.8235   -0.4058 H         1 <0>         0.0726
     44 H10        -0.1914   -2.0155    4.2339 H         1 <0>         0.4527
     45 H11         1.2624    1.3781    4.5389 H         1 <0>         0.1477
     46 H12         1.7299    3.4513    3.3006 H         1 <0>         0.1425
     47 H13         4.1818    1.2403    0.5633 H         1 <0>         0.1440
     48 H14         3.6967   -0.8223    1.8122 H         1 <0>         0.1481
     49 H15         6.1826    3.3885    1.9224 H         1 <0>         0.0838
     50 H16         5.1945    2.0773    1.1936 H         1 <0>         0.1196
     51 H17         5.3667    1.6107   -1.2228 H         1 <0>         0.1261
     52 H18         6.8746    1.5397   -3.1647 H         1 <0>         0.1293
     53 H19         9.4517    4.3783   -1.2426 H         1 <0>         0.1398
     54 H20         7.9257    4.4416    0.6853 H         1 <0>         0.1326
     55 H21         9.5721    2.0888   -5.4122 H         1 <0>         0.4286
     56 H22         7.9807    1.5053   -4.5422 H         1 <0>         0.4180
     57 H23         5.9133    5.2253    0.3924 H         1 <0>         0.1389
     58 H24         3.0241    6.1300    0.9794 H         1 <0>         0.1346
     59 H25         4.2610    7.3627    0.5582 H         1 <0>         0.0986
     60 H26         4.7145    6.0742   -1.8810 H         1 <0>         0.1022
     61 H27         3.4776    4.8416   -1.4599 H         1 <0>         0.0983
@<TRIPOS>BOND
     1    1    2 1
     2    1   35 1
     3    1   36 1
     4    1   37 1
     5    2    7 ar
     6    2    3 ar
     7    3    4 ar
     8    3   38 1
     9    4    5 ar
    10    4   39 1
    11    5    6 ar
    12    5    9 1
    13    6    7 ar
    14    6   40 1
    15    7    8 1
    16    8   41 1
    17    8   42 1
    18    8   43 1
    19    9   10 1
    20    9   44 1
    21   10   11 2
    22   10   12 2
    23   10   13 1
    24   13   18 ar
    25   13   14 ar
    26   14   15 ar
    27   14   45 1
    28   15   16 ar
    29   15   46 1
    30   16   17 ar
    31   16   19 1
    32   17   18 ar
    33   17   47 1
    34   18   48 1
    35   19   20 2
    36   19   21 am
    37   21   22 1
    38   21   32 1
    39   22   23 1
    40   22   49 1
    41   22   50 1
    42   23   28 ar
    43   23   24 ar
    44   24   25 ar
    45   24   51 1
    46   25   26 ar
    47   25   52 1
    48   26   27 ar
    49   26   29 1
    50   27   28 ar
    51   27   53 1
    52   28   54 1
    53   29   30 2
    54   29   31 am
    55   31   55 1
    56   31   56 1
    57   32   34 1
    58   32   33 1
    59   32   57 1
    60   33   34 1
    61   33   58 1
    62   33   59 1
    63   34   60 1
    64   34   61 1
