@<TRIPOS>MOLECULE
ZINC44937847
   46    48     0     0     0
SMALL
USER_CHARGES

@<TRIPOS>ATOM
      1 C1         -0.0215    1.2512    0.1544 C.2       1 <0>        -0.1606
      2 C2          1.1768    1.8832    0.1987 C.2       1 <0>        -0.1483
      3 S1          2.3179    0.5103    0.2173 S.3       1 <0>         0.1334
      4 C3          1.1206   -0.8129    0.1646 C.2       1 <0>        -0.1991
      5 C4         -0.0503   -0.1307    0.1369 C.2       1 <0>        -0.1580
      6 C5         -1.3639   -0.8677    0.0882 C.3       1 <0>         0.0905
      7 H1         -2.1499   -0.2011   -0.2665 H         1 <0>         0.1459
      8 C6         -1.7201   -1.3988    1.4926 C.3       1 <0>        -0.1289
      9 C7         -2.3466   -2.7862    1.1930 C.3       1 <0>        -0.1425
     10 C8         -1.4969   -3.2593   -0.0127 C.3       1 <0>        -0.0066
     11 N1         -1.2522   -2.0331   -0.8080 N.4       1 <0>        -0.3774
     12 C9         -2.2498   -1.9289   -1.8812 C.3       1 <0>        -0.0305
     13 C10        -2.0520   -3.0557   -2.8621 C.2       1 <0>         0.4938
     14 O1         -1.1671   -3.8659   -2.6846 O.2       1 <0>        -0.5084
     15 N2         -2.8584   -3.1632   -3.9366 N.am      1 <0>        -0.7000
     16 C11        -2.6661   -4.2586   -4.8902 C.3       1 <0>         0.1331
     17 H2         -1.6029   -4.3826   -5.0959 H         1 <0>         0.1279
     18 C12        -3.4084   -3.9440   -6.1913 C.3       1 <0>        -0.1295
     19 C13        -4.6949   -3.1901   -5.9075 C.3       1 <0>        -0.1258
     20 C14        -5.7350   -4.0100   -5.1662 C.3       1 <0>        -0.1516
     21 C15        -5.2660   -4.3296   -3.7454 C.3       1 <0>         0.0966
     22 N3         -4.4532   -5.5562   -3.7824 N.am      1 <0>        -0.7227
     23 C16        -3.2253   -5.5412   -4.3113 C.2       1 <0>         0.5090
     24 O2         -2.5598   -6.5548   -4.3334 O.2       1 <0>        -0.5200
     25 H3         -0.9402    1.8188    0.1375 H         1 <0>         0.1457
     26 H4          1.3868    2.9424    0.2176 H         1 <0>         0.1990
     27 H5          1.2863   -1.8801    0.1564 H         1 <0>         0.1885
     28 H6         -0.8237   -1.5046    2.1035 H         1 <0>         0.1042
     29 H7         -2.4446   -0.7458    1.9793 H         1 <0>         0.1171
     30 H8         -2.2286   -3.4594    2.0420 H         1 <0>         0.1210
     31 H9         -3.3965   -2.6890    0.9167 H         1 <0>         0.0972
     32 H10        -0.5541   -3.6846    0.3311 H         1 <0>         0.1369
     33 H11        -2.0502   -3.9891   -0.6038 H         1 <0>         0.1344
     34 H12        -3.2508   -1.9905   -1.4541 H         1 <0>         0.1600
     35 H13        -2.1322   -0.9749   -2.3952 H         1 <0>         0.1613
     36 H14        -3.5662   -2.5152   -4.0786 H         1 <0>         0.4148
     37 H15        -2.7693   -3.3353   -6.8309 H         1 <0>         0.0929
     38 H16        -3.6445   -4.8764   -6.7042 H         1 <0>         0.0930
     39 H17        -4.4575   -2.3086   -5.3119 H         1 <0>         0.0583
     40 H18        -5.1218   -2.8613   -6.8551 H         1 <0>         0.0859
     41 H19        -6.6672   -3.4472   -5.1178 H         1 <0>         0.0872
     42 H20        -5.9073   -4.9418   -5.7048 H         1 <0>         0.0808
     43 H21        -4.6650   -3.5040   -3.3642 H         1 <0>         0.0725
     44 H22        -6.1313   -4.4835   -3.1006 H         1 <0>         0.0932
     45 H23        -4.8097   -6.3816   -3.4183 H         1 <0>         0.4064
     46 H24        -0.3266   -2.0662   -1.2084 H         1 <0>         0.4296
@<TRIPOS>BOND
     1    1    5 1
     2    1    2 2
     3    1   25 1
     4    2    3 1
     5    2   26 1
     6    3    4 1
     7    4    5 2
     8    4   27 1
     9    5    6 1
    10    6    7 1
    11    6   11 1
    12    6    8 1
    13    8    9 1
    14    8   28 1
    15    8   29 1
    16    9   10 1
    17    9   30 1
    18    9   31 1
    19   10   11 1
    20   10   32 1
    21   10   33 1
    22   11   12 1
    23   11   46 1
    24   12   13 1
    25   12   34 1
    26   12   35 1
    27   13   14 2
    28   13   15 am
    29   15   16 1
    30   15   36 1
    31   16   17 1
    32   16   23 1
    33   16   18 1
    34   18   19 1
    35   18   37 1
    36   18   38 1
    37   19   20 1
    38   19   39 1
    39   19   40 1
    40   20   21 1
    41   20   41 1
    42   20   42 1
    43   21   22 1
    44   21   43 1
    45   21   44 1
    46   22   23 am
    47   22   45 1
    48   23   24 2
