@<TRIPOS>MOLECULE
ZINC57871489
   36    38     0     0     0
SMALL
USER_CHARGES

@<TRIPOS>ATOM
      1 C1         -0.0169    1.3938    0.0097 C.ar      1 <0>         0.0134
      2 C2          1.1935    2.0628    0.0017 C.ar      1 <0>        -0.1016
      3 C3          2.3754    1.3373   -0.0134 C.ar      1 <0>         0.1787
      4 N1          2.3708    0.0202   -0.0205 N.ar      1 <0>        -0.4697
      5 C4          1.2414   -0.6691   -0.0134 C.ar      1 <0>         0.2604
      6 C5          0.0021   -0.0041    0.0020 C.ar      1 <0>         0.0073
      7 N2         -0.9632   -0.9575    0.0057 N.2       1 <0>        -0.4036
      8 C6         -0.4105   -2.1353   -0.0062 C.2       1 <0>         0.2008
      9 N3          0.9453   -2.0156   -0.0178 N.pl3     1 <0>        -0.4554
     10 C7          1.9125   -3.1158   -0.0333 C.3       1 <0>         0.1008
     11 C8          2.2634   -3.5066    1.4038 C.3       1 <0>        -0.1243
     12 C9          2.9942   -2.3466    2.0860 C.3       1 <0>        -0.1435
     13 C10         3.4121   -2.7725    3.4951 C.3       1 <0>        -0.0048
     14 N4          4.3044   -3.9351    3.4144 N.4       1 <0>        -0.5053
     15 C11         3.5877   -5.0732    2.8265 C.3       1 <0>        -0.0047
     16 C12         3.1766   -4.7359    1.3917 C.3       1 <0>        -0.1407
     17 C13        -1.1619   -3.4416   -0.0069 C.3       1 <0>         0.5632
     18 F1         -2.5017   -3.2087   -0.3353 F         1 <0>        -0.1351
     19 F2         -0.5942   -4.3056   -0.9494 F         1 <0>        -0.1606
     20 F3         -1.0875   -4.0231    1.2633 F         1 <0>        -0.1609
     21 Cl1         1.2332    3.7983    0.0101 Cl        1 <0>        -0.0215
     22 H1         -0.9507    1.9361    0.0259 H         1 <0>         0.1644
     23 H2          3.3188    1.8630   -0.0200 H         1 <0>         0.1861
     24 H3          1.4790   -3.9735   -0.5475 H         1 <0>         0.1152
     25 H4          2.8157   -2.7982   -0.5543 H         1 <0>         0.1162
     26 H5          1.3500   -3.7365    1.9523 H         1 <0>         0.0994
     27 H6          3.8799   -2.0839    1.5075 H         1 <0>         0.1007
     28 H7          2.3303   -1.4844    2.1482 H         1 <0>         0.1060
     29 H8          3.9326   -1.9488    3.9838 H         1 <0>         0.1366
     30 H9          2.5257   -3.0348    4.0728 H         1 <0>         0.1304
     31 H10         5.1011   -3.7070    2.8388 H         1 <0>         0.4291
     32 H11         4.2378   -5.9481    2.8216 H         1 <0>         0.1394
     33 H12         2.6976   -5.2864    3.4184 H         1 <0>         0.1325
     34 H13         2.6431   -5.5814    0.9576 H         1 <0>         0.1195
     35 H14         4.0661   -4.5227    0.7988 H         1 <0>         0.0974
     36 H15         4.6205   -4.1802    4.3407 H         1 <0>         0.4342
@<TRIPOS>BOND
     1    1    6 ar
     2    1    2 ar
     3    1   22 1
     4    2    3 ar
     5    2   21 1
     6    3    4 ar
     7    3   23 1
     8    4    5 ar
     9    5    9 1
    10    5    6 ar
    11    6    7 1
    12    7    8 2
    13    8    9 1
    14    8   17 1
    15    9   10 1
    16   10   11 1
    17   10   24 1
    18   10   25 1
    19   11   16 1
    20   11   12 1
    21   11   26 1
    22   12   13 1
    23   12   27 1
    24   12   28 1
    25   13   14 1
    26   13   29 1
    27   13   30 1
    28   14   15 1
    29   14   31 1
    30   14   36 1
    31   15   16 1
    32   15   32 1
    33   15   33 1
    34   16   34 1
    35   16   35 1
    36   17   18 1
    37   17   19 1
    38   17   20 1
