@<TRIPOS>MOLECULE
ZINC49025772
   43    43     0     0     0
SMALL
USER_CHARGES

@<TRIPOS>ATOM
      1 C1         -0.4044   -3.7625    1.3924 C.3       1 <0>        -0.1825
      2 C2         -1.5080   -4.3476    0.5088 C.3       1 <0>         0.0338
      3 H1         -1.9695   -5.1943    1.0168 H         1 <0>         0.1492
      4 C3         -0.9052   -4.8153   -0.8174 C.3       1 <0>         0.0310
      5 O1         -0.2000   -3.7328   -1.4282 O.3       1 <0>        -0.3984
      6 C4          0.4046   -4.0654   -2.6795 C.3       1 <0>         0.0298
      7 N1         -2.5242   -3.3191    0.2491 N.4       1 <0>        -0.3833
      8 C5         -3.5837   -3.8808   -0.5993 C.3       1 <0>        -0.0591
      9 C6         -3.1030   -2.8700    1.5224 C.3       1 <0>        -0.0001
     10 C7         -4.0700   -1.7131    1.2633 C.3       1 <0>        -0.1718
     11 C8         -4.6637   -1.2524    2.5695 C.2       1 <0>         0.5268
     12 O2         -4.3448   -1.7961    3.6059 O.2       1 <0>        -0.5110
     13 N2         -5.5491   -0.2364    2.5862 N.am      1 <0>        -0.6641
     14 C9         -6.1813    0.1232    3.7855 C.ar      1 <0>         0.0709
     15 C10        -5.6156    1.0913    4.6057 C.ar      1 <0>         0.0388
     16 C11        -6.2386    1.4455    5.7872 C.ar      1 <0>        -0.1836
     17 C12        -7.4300    0.8337    6.1547 C.ar      1 <0>         0.2598
     18 C13        -7.9954   -0.1344    5.3350 C.ar      1 <0>        -0.1839
     19 C14        -7.3760   -0.4844    4.1504 C.ar      1 <0>         0.0374
     20 Cl1        -8.0868   -1.6890    3.1221 Cl        1 <0>        -0.0479
     21 N3         -8.0604    1.1924    7.3508 N.pl3     1 <0>        -0.8596
     22 Cl2        -4.1260    1.8555    4.1467 Cl        1 <0>        -0.0447
     23 H2          0.3496   -4.5256    1.5851 H         1 <0>         0.1052
     24 H3          0.0571   -2.9157    0.8845 H         1 <0>         0.0905
     25 H4         -0.8339   -3.4293    2.3373 H         1 <0>         0.0844
     26 H5         -0.2162   -5.6395   -0.6327 H         1 <0>         0.0973
     27 H6         -1.7025   -5.1499   -1.4810 H         1 <0>         0.0764
     28 H7          0.9198   -3.1913   -3.0778 H         1 <0>         0.1004
     29 H8          1.1207   -4.8740   -2.5335 H         1 <0>         0.0552
     30 H9         -0.3656   -4.3845   -3.3817 H         1 <0>         0.0511
     31 H10        -4.3378   -3.1177   -0.7920 H         1 <0>         0.1260
     32 H11        -3.1543   -4.2140   -1.5441 H         1 <0>         0.1254
     33 H12        -4.0453   -4.7276   -0.0913 H         1 <0>         0.1252
     34 H13        -3.6408   -3.6957    1.9883 H         1 <0>         0.1401
     35 H14        -2.3056   -2.5354    2.1860 H         1 <0>         0.1441
     36 H15        -3.5322   -0.8874    0.7974 H         1 <0>         0.1203
     37 H16        -4.8674   -2.0477    0.5997 H         1 <0>         0.1199
     38 H17        -5.7492    0.2460    1.7689 H         1 <0>         0.4129
     39 H18        -5.7987    2.1978    6.4251 H         1 <0>         0.1460
     40 H19        -8.9218   -0.6102    5.6211 H         1 <0>         0.1459
     41 H20        -7.6654    1.8684    7.9235 H         1 <0>         0.4085
     42 H21        -8.8926    0.7652    7.6075 H         1 <0>         0.4084
     43 H22        -2.0969   -2.5353   -0.2211 H         1 <0>         0.4294
@<TRIPOS>BOND
     1    1    2 1
     2    1   23 1
     3    1   24 1
     4    1   25 1
     5    2    3 1
     6    2    4 1
     7    2    7 1
     8    4    5 1
     9    4   26 1
    10    4   27 1
    11    5    6 1
    12    6   28 1
    13    6   29 1
    14    6   30 1
    15    7    8 1
    16    7    9 1
    17    7   43 1
    18    8   31 1
    19    8   32 1
    20    8   33 1
    21    9   10 1
    22    9   34 1
    23    9   35 1
    24   10   11 1
    25   10   36 1
    26   10   37 1
    27   11   12 2
    28   11   13 am
    29   13   14 1
    30   13   38 1
    31   14   19 ar
    32   14   15 ar
    33   15   16 ar
    34   15   22 1
    35   16   17 ar
    36   16   39 1
    37   17   18 ar
    38   17   21 1
    39   18   19 ar
    40   18   40 1
    41   19   20 1
    42   21   41 1
    43   21   42 1
