@<TRIPOS>MOLECULE
ZINC13959931
   53    57     0     0     0
SMALL
USER_CHARGES
(2R)-N-[1-(2,3-dihydro-1,4-benzodioxin-6-yl)ethylideneamino]-2-(oxoBLAHyl)propanamide
@<TRIPOS>ATOM
      1 C1          5.4398    4.0538    1.0148 C.3       1 <0>        -0.1661
      2 C2          5.9206    3.5560   -0.3497 C.3       1 <0>         0.1006
      3 H1          5.2474    3.9186   -1.1265 H         1 <0>         0.1492
      4 C3          5.9328    2.0491   -0.3589 C.2       1 <0>         0.5207
      5 O1          6.9700    1.4521   -0.5577 O.2       1 <0>        -0.4880
      6 N1          4.7914    1.3646   -0.1462 N.am      1 <0>        -0.5801
      7 N2          4.8028   -0.0364   -0.1548 N.2       1 <0>        -0.2243
      8 C4          3.7311   -0.6960    0.1628 C.2       1 <0>         0.1534
      9 C5          3.6884   -2.1924   -0.0101 C.3       1 <0>        -0.0981
     10 C6          2.5556    0.0187    0.6928 C.ar      1 <0>        -0.1007
     11 C7          2.7262    1.1295    1.5231 C.ar      1 <0>        -0.1192
     12 C8          1.6249    1.7946    2.0175 C.ar      1 <0>        -0.1065
     13 C9          0.3439    1.3654    1.6941 C.ar      1 <0>         0.0682
     14 C10         0.1668    0.2614    0.8654 C.ar      1 <0>         0.0570
     15 C11         1.2678   -0.4120    0.3663 C.ar      1 <0>        -0.0784
     16 O2         -1.0822   -0.1659    0.5322 O.3       1 <0>        -0.3033
     17 C12        -2.1617    0.3023    1.3476 C.3       1 <0>         0.0192
     18 C13        -1.9873    1.8128    1.5550 C.3       1 <0>         0.0183
     19 O3         -0.7283    2.0329    2.2013 O.3       1 <0>        -0.3029
     20 N3          7.2737    4.0569   -0.6033 N.am      1 <0>        -0.5151
     21 C14         8.2771    3.7236    0.2488 C.2       1 <0>         0.4086
     22 N4          9.4973    4.1496    0.0585 N.2       1 <0>        -0.4851
     23 C15         9.7942    4.9262   -0.9807 C.2       1 <0>         0.1028
     24 C16         8.8258    5.3212   -1.9129 C.2       1 <0>        -0.2345
     25 C17         7.4987    4.8341   -1.6797 C.2       1 <0>         0.5575
     26 O4          6.5895    5.1212   -2.4391 O.2       1 <0>        -0.5207
     27 C18         9.2968    6.1787   -3.0108 C.2       1 <0>        -0.0739
     28 C19        10.6017    6.5008   -3.0128 C.2       1 <0>        -0.1977
     29 S1         11.2762    5.6943   -1.5788 S.3       1 <0>         0.1884
     30 C20        10.9673    7.3824   -4.1766 C.3       1 <0>        -0.0324
     31 C21         9.6169    7.9352   -4.6831 C.3       1 <0>        -0.1170
     32 C22         8.6372    6.8368   -4.2259 C.3       1 <0>        -0.0623
     33 H2          6.1130    3.6911    1.7917 H         1 <0>         0.0775
     34 H3          5.4310    5.1437    1.0215 H         1 <0>         0.0886
     35 H4          4.4330    3.6811    1.2035 H         1 <0>         0.0867
     36 H5          3.9621    1.8419    0.0127 H         1 <0>         0.3931
     37 H6          3.3205   -2.4325   -1.0077 H         1 <0>         0.0899
     38 H7          4.6908   -2.6015    0.1156 H         1 <0>         0.0878
     39 H8          3.0228   -2.6256    0.7365 H         1 <0>         0.0858
     40 H9          3.7202    1.4669    1.7769 H         1 <0>         0.1367
     41 H10         1.7585    2.6528    2.6593 H         1 <0>         0.1440
     42 H11         1.1314   -1.2703   -0.2749 H         1 <0>         0.1462
     43 H12        -3.1109    0.1070    0.8485 H         1 <0>         0.1272
     44 H13        -2.1418   -0.2064    2.3114 H         1 <0>         0.0818
     45 H14        -2.0008    2.3202    0.5904 H         1 <0>         0.0820
     46 H15        -2.7934    2.1932    2.1824 H         1 <0>         0.1274
     47 H16         8.0622    3.0947    1.1001 H         1 <0>         0.2105
     48 H17        11.6128    8.1971   -3.8486 H         1 <0>         0.0828
     49 H18        11.4581    6.7994   -4.9560 H         1 <0>         0.0886
     50 H19         9.3831    8.8885   -4.2092 H         1 <0>         0.0780
     51 H20         9.6170    8.0306   -5.7690 H         1 <0>         0.0862
     52 H21         7.6814    7.2780   -3.9432 H         1 <0>         0.0794
     53 H22         8.4935    6.1050   -5.0209 H         1 <0>         0.0822
@<TRIPOS>BOND
     1    1    2 1
     2    1   33 1
     3    1   34 1
     4    1   35 1
     5    2    3 1
     6    2    4 1
     7    2   20 1
     8    4    5 2
     9    4    6 am
    10    6    7 1
    11    6   36 1
    12    7    8 2
    13    8    9 1
    14    8   10 1
    15    9   37 1
    16    9   38 1
    17    9   39 1
    18   10   15 ar
    19   10   11 ar
    20   11   12 ar
    21   11   40 1
    22   12   13 ar
    23   12   41 1
    24   13   19 1
    25   13   14 ar
    26   14   15 ar
    27   14   16 1
    28   15   42 1
    29   16   17 1
    30   17   18 1
    31   17   43 1
    32   17   44 1
    33   18   19 1
    34   18   45 1
    35   18   46 1
    36   20   25 am
    37   20   21 1
    38   21   22 2
    39   21   47 1
    40   22   23 1
    41   23   29 1
    42   23   24 2
    43   24   25 1
    44   24   27 1
    45   25   26 2
    46   27   32 1
    47   27   28 2
    48   28   29 1
    49   28   30 1
    50   30   31 1
    51   30   48 1
    52   30   49 1
    53   31   32 1
    54   31   50 1
    55   31   51 1
    56   32   52 1
    57   32   53 1
