@<TRIPOS>MOLECULE
ZINC67537154
   44    46     0     0     0
SMALL
USER_CHARGES

@<TRIPOS>ATOM
      1 C1          0.7718    0.8948   -2.9707 C.3       1 <0>        -0.0684
      2 C2          0.6326   -0.4894   -2.3913 C.2       1 <0>         0.1664
      3 N1          0.0618   -0.8564   -1.2764 N.2       1 <0>        -0.5015
      4 C3          0.0075   -2.1441   -0.8728 C.ar      1 <0>         0.0586
      5 C4         -0.5768   -2.6677    0.3046 C.ar      1 <0>        -0.0385
      6 C5         -0.5457   -4.0004    0.5668 C.ar      1 <0>        -0.1324
      7 C6          0.0590   -4.9028   -0.3065 C.ar      1 <0>         0.1854
      8 C7          0.6430   -4.4281   -1.4727 C.ar      1 <0>        -0.0692
      9 C8          0.6133   -3.0816   -1.7409 C.ar      1 <0>        -0.1172
     10 S1          1.2003   -2.0466   -3.0601 S.3       1 <0>        -0.0255
     11 N2          0.0774   -6.2718   -0.0108 N.am      1 <0>        -0.6784
     12 C9         -0.0218   -7.1772   -1.0042 C.2       1 <0>         0.7100
     13 O1         -0.0456   -6.8086   -2.1627 O.2       1 <0>        -0.5685
     14 N3         -0.0947   -8.4913   -0.7136 N.am      1 <0>        -0.7250
     15 C10        -0.2026   -9.4754   -1.7934 C.3       1 <0>         0.1437
     16 H1          0.3751   -9.1362   -2.6532 H         1 <0>         0.1160
     17 C11        -1.6705   -9.6328   -2.1952 C.3       1 <0>        -0.1636
     18 C12         0.3335  -10.8018   -1.3196 C.2       1 <0>         0.5159
     19 O2          0.4990  -11.0006   -0.1347 O.2       1 <0>        -0.5276
     20 N4          0.6290  -11.7670   -2.2126 N.am      1 <0>        -0.6117
     21 C13         0.5413  -11.4782   -3.6448 C.3       1 <0>         0.0971
     22 C14         1.9411  -11.5455   -4.2662 C.3       1 <0>        -0.1057
     23 S2          2.6449  -13.1893   -3.9371 S.3       1 <0>        -0.2485
     24 C15         2.4927  -13.3506   -2.1326 C.3       1 <0>        -0.1015
     25 C16         1.0396  -13.0895   -1.7384 C.3       1 <0>         0.1090
     26 H2         -0.0900    1.1130   -3.6014 H         1 <0>         0.0974
     27 H3          0.8239    1.6236   -2.1618 H         1 <0>         0.0989
     28 H4          1.6821    0.9489   -3.5678 H         1 <0>         0.0927
     29 H5         -1.0541   -1.9984    1.0050 H         1 <0>         0.1391
     30 H6         -1.0002   -4.3696    1.4743 H         1 <0>         0.1387
     31 H7          1.1168   -5.1110   -2.1622 H         1 <0>         0.1516
     32 H8          0.1616   -6.5682    0.9089 H         1 <0>         0.4134
     33 H9         -0.0757   -8.7853    0.2106 H         1 <0>         0.4097
     34 H10        -2.2628   -9.8854   -1.3158 H         1 <0>         0.0687
     35 H11        -2.0329   -8.6971   -2.6209 H         1 <0>         0.0811
     36 H12        -1.7613  -10.4280   -2.9352 H         1 <0>         0.0752
     37 H13        -0.1050  -12.2131   -4.1248 H         1 <0>         0.0948
     38 H14         0.1271  -10.4804   -3.7896 H         1 <0>         0.1032
     39 H15         1.8717  -11.3861   -5.3422 H         1 <0>         0.1233
     40 H16         2.5762  -10.7799   -3.8207 H         1 <0>         0.0884
     41 H17         2.7798  -14.3576   -1.8298 H         1 <0>         0.1209
     42 H18         3.1389  -12.6211   -1.6443 H         1 <0>         0.0875
     43 H19         0.9469  -13.1313   -0.6531 H         1 <0>         0.1076
     44 H20         0.4014  -13.8507   -2.1872 H         1 <0>         0.0890
@<TRIPOS>BOND
     1    1    2 1
     2    1   26 1
     3    1   27 1
     4    1   28 1
     5    2   10 1
     6    2    3 2
     7    3    4 1
     8    4    9 ar
     9    4    5 ar
    10    5    6 ar
    11    5   29 1
    12    6    7 ar
    13    6   30 1
    14    7    8 ar
    15    7   11 1
    16    8    9 ar
    17    8   31 1
    18    9   10 1
    19   11   12 am
    20   11   32 1
    21   12   13 2
    22   12   14 am
    23   14   15 1
    24   14   33 1
    25   15   16 1
    26   15   17 1
    27   15   18 1
    28   17   34 1
    29   17   35 1
    30   17   36 1
    31   18   19 2
    32   18   20 am
    33   20   25 1
    34   20   21 1
    35   21   22 1
    36   21   37 1
    37   21   38 1
    38   22   23 1
    39   22   39 1
    40   22   40 1
    41   23   24 1
    42   24   25 1
    43   24   41 1
    44   24   42 1
    45   25   43 1
    46   25   44 1
