@<TRIPOS>MOLECULE
ZINC00168445
   19    19     0     0     0
SMALL
USER_CHARGES
2-amino-4,5-dimethyl-1H-pyrrole-3-carbonitrile
@<TRIPOS>ATOM
      1 C1          1.6299    4.2580    0.0083 C.3       1 <0>        -0.0858
      2 C2          0.7238    3.0538    0.0107 C.2       1 <0>        -0.0871
      3 C3          1.1024    1.7663    0.0010 C.2       1 <0>         0.0023
      4 N1         -0.0111    0.9658    0.0074 N.pl3     1 <0>        -0.5737
      5 H1          0.0021   -0.0041    0.0020 H         1 <0>         0.4171
      6 C4         -1.1349    1.7283    0.0163 C.2       1 <0>         0.3941
      7 C5         -0.7452    3.0618    0.0242 C.2       1 <0>        -0.2118
      8 C6         -1.6009    4.2099    0.0370 C.1       1 <0>         0.2954
      9 N2         -2.2798    5.1207    0.0471 N.1       1 <0>        -0.4578
     10 N3         -2.4359    1.2605    0.0200 N.pl3     1 <0>        -0.8517
     11 C7          2.5276    1.2770   -0.0144 C.3       1 <0>        -0.0818
     12 H2          1.8389    4.5533   -1.0199 H         1 <0>         0.0685
     13 H3          1.1420    5.0809    0.5306 H         1 <0>         0.0628
     14 H4          2.5642    4.0107    0.5124 H         1 <0>         0.0684
     15 H5         -2.6080    0.3059    0.0165 H         1 <0>         0.4032
     16 H6         -3.1765    1.8868    0.0261 H         1 <0>         0.4196
     17 H7          2.8617    1.1635   -1.0458 H         1 <0>         0.0718
     18 H8          3.1650    1.9984    0.4967 H         1 <0>         0.0829
     19 H9          2.5870    0.3149    0.4946 H         1 <0>         0.0636
@<TRIPOS>BOND
     1    1    2 1
     2    1   12 1
     3    1   13 1
     4    1   14 1
     5    2    7 1
     6    2    3 2
     7    3    4 1
     8    3   11 1
     9    4    5 1
    10    4    6 1
    11    6    7 2
    12    6   10 1
    13    7    8 1
    14    8    9 3
    15   10   15 1
    16   10   16 1
    17   11   17 1
    18   11   18 1
    19   11   19 1
