@<TRIPOS>MOLECULE
ZINC37856223
   36    36     0     0     0
SMALL
USER_CHARGES

@<TRIPOS>ATOM
      1 C1         -0.0178    1.4608    0.0101 C.3       1 <0>         0.0774
      2 N1          0.0021   -0.0041    0.0020 N.am      1 <0>        -0.7061
      3 C2         -1.1558   -0.6938    0.0094 C.2       1 <0>         0.4937
      4 O1         -2.2142   -0.1017    0.0227 O.2       1 <0>        -0.5240
      5 C3         -1.1354   -2.2006    0.0011 C.3       1 <0>        -0.0292
      6 N2         -2.5135   -2.7091    0.0115 N.4       1 <0>        -0.4905
      7 C4         -2.4936   -4.1779    0.0034 C.3       1 <0>        -0.0420
      8 C5         -3.9290   -4.7075    0.0143 C.3       1 <0>         0.0872
      9 H1         -4.4658   -4.2848    0.8635 H         1 <0>         0.1375
     10 C6         -3.9090   -6.2329    0.1316 C.3       1 <0>         0.0325
     11 O2         -5.2469   -6.7184    0.2589 O.3       1 <0>        -0.2989
     12 C7         -5.4069   -8.0635    0.3743 C.ar      1 <0>         0.1001
     13 C8         -5.5631   -8.8451   -0.7619 C.ar      1 <0>        -0.0424
     14 C9         -5.7257  -10.2129   -0.6415 C.ar      1 <0>        -0.0926
     15 C10        -5.7329  -10.8021    0.6092 C.ar      1 <0>        -0.0876
     16 C11        -5.5776  -10.0260    1.7428 C.ar      1 <0>        -0.0924
     17 C12        -5.4089   -8.6585    1.6282 C.ar      1 <0>        -0.0432
     18 Cl1        -5.2061   -7.6857    3.0517 Cl        1 <0>        -0.0431
     19 Cl2        -5.5547   -8.1061   -2.3327 Cl        1 <0>        -0.0404
     20 O3         -4.5846   -4.3316   -1.1985 O.3       1 <0>        -0.5373
     21 H2          1.0048    1.8381    0.0023 H         1 <0>         0.0924
     22 H3         -0.5450    1.8219   -0.8730 H         1 <0>         0.0736
     23 H4         -0.5280    1.8123    0.9069 H         1 <0>         0.0736
     24 H5          0.8486   -0.4776   -0.0086 H         1 <0>         0.4132
     25 H6         -0.6252   -2.5521   -0.8957 H         1 <0>         0.1628
     26 H7         -0.6082   -2.5617    0.8841 H         1 <0>         0.1633
     27 H8         -2.9858   -2.3837    0.8417 H         1 <0>         0.4381
     28 H9         -1.9834   -4.5294   -0.8934 H         1 <0>         0.1432
     29 H10        -1.9664   -4.5390    0.8865 H         1 <0>         0.1493
     30 H11        -3.4508   -6.6599   -0.7604 H         1 <0>         0.0727
     31 H12        -3.3323   -6.5221    1.0102 H         1 <0>         0.0766
     32 H13        -5.8476  -10.8215   -1.5253 H         1 <0>         0.1502
     33 H14        -5.8604  -11.8706    0.7009 H         1 <0>         0.1522
     34 H15        -5.5840  -10.4889    2.7185 H         1 <0>         0.1502
     35 H16        -4.1603   -4.6737   -1.9973 H         1 <0>         0.3885
     36 H17        -3.0016   -2.3748   -0.8059 H         1 <0>         0.4414
@<TRIPOS>BOND
     1    1    2 1
     2    1   21 1
     3    1   22 1
     4    1   23 1
     5    2    3 am
     6    2   24 1
     7    3    4 2
     8    3    5 1
     9    5    6 1
    10    5   25 1
    11    5   26 1
    12    6    7 1
    13    6   27 1
    14    6   36 1
    15    7    8 1
    16    7   28 1
    17    7   29 1
    18    8    9 1
    19    8   10 1
    20    8   20 1
    21   10   11 1
    22   10   30 1
    23   10   31 1
    24   11   12 1
    25   12   17 ar
    26   12   13 ar
    27   13   14 ar
    28   13   19 1
    29   14   15 ar
    30   14   32 1
    31   15   16 ar
    32   15   33 1
    33   16   17 ar
    34   16   34 1
    35   17   18 1
    36   20   35 1
