@<TRIPOS>MOLECULE
ZINC49808713
   26    27     0     0     0
SMALL
USER_CHARGES

@<TRIPOS>ATOM
      1 C1         -0.0167    1.3780    0.0096 C.ar      1 <0>        -0.0637
      2 C2          1.1704    2.0868    0.0021 C.ar      1 <0>        -0.0692
      3 C3          2.3780    1.4133   -0.0131 C.ar      1 <0>        -0.0438
      4 C4          2.3974    0.0276   -0.0207 C.ar      1 <0>         0.1301
      5 C5          1.2079   -0.6799   -0.0132 C.ar      1 <0>        -0.1372
      6 C6          0.0021   -0.0041    0.0020 C.ar      1 <0>        -0.1393
      7 C7         -1.2930   -0.7747    0.0108 C.3       1 <0>         0.1961
      8 H1         -2.1024   -0.1288   -0.3292 H         1 <0>         0.1985
      9 C8         -1.5846   -1.2511    1.4104 C.2       1 <0>         0.2092
     10 N1         -2.5038   -0.7329    2.2327 N.2       1 <0>        -0.4636
     11 C9         -2.5012   -1.3745    3.3681 C.2       1 <0>         0.2452
     12 O1         -1.5692   -2.3338    3.3056 O.3       1 <0>        -0.0268
     13 N2         -0.9867   -2.2377    2.0143 N.2       1 <0>        -0.2883
     14 C10        -3.3937   -1.0858    4.5476 C.3       1 <0>         0.5763
     15 F1         -4.5681   -1.8383    4.4390 F         1 <0>        -0.1343
     16 F2         -2.7288   -1.4274    5.7302 F         1 <0>        -0.1356
     17 F3         -3.7128    0.2761    4.5687 F         1 <0>        -0.1269
     18 N3         -1.1801   -1.9321   -0.8869 N.4       1 <0>        -0.6328
     19 F4          3.5763   -0.6320   -0.0360 F         1 <0>        -0.1068
     20 Cl1         3.8687    2.3030   -0.0231 Cl        1 <0>        -0.0053
     21 H2         -0.9594    1.9047    0.0260 H         1 <0>         0.1611
     22 H3          1.1545    3.1667    0.0077 H         1 <0>         0.1659
     23 H4          1.2217   -1.7598   -0.0191 H         1 <0>         0.1464
     24 H5         -0.9849   -1.6131   -1.8240 H         1 <0>         0.4568
     25 H6         -0.4308   -2.5300   -0.5722 H         1 <0>         0.4399
     26 H7         -2.0472   -2.4480   -0.8810 H         1 <0>         0.4481
@<TRIPOS>BOND
     1    1    6 ar
     2    1    2 ar
     3    1   21 1
     4    2    3 ar
     5    2   22 1
     6    3    4 ar
     7    3   20 1
     8    4    5 ar
     9    4   19 1
    10    5    6 ar
    11    5   23 1
    12    6    7 1
    13    7    8 1
    14    7    9 1
    15    7   18 1
    16    9   13 2
    17    9   10 1
    18   10   11 2
    19   11   12 1
    20   11   14 1
    21   12   13 1
    22   14   15 1
    23   14   16 1
    24   14   17 1
    25   18   24 1
    26   18   25 1
    27   18   26 1
