@<TRIPOS>MOLECULE
ZINC66379577
   49    52     0     0     0
SMALL
USER_CHARGES

@<TRIPOS>ATOM
      1 C1         -0.0184    1.5028    0.0103 C.3       1 <0>        -0.1097
      2 C2          0.0021   -0.0041    0.0020 C.ar      1 <0>         0.2157
      3 C3          0.0059   -0.6992   -1.1973 C.ar      1 <0>        -0.2505
      4 C4          0.0249   -2.0848   -1.1592 C.ar      1 <0>         0.2145
      5 N1          0.0386   -2.6974    0.0130 N.ar      1 <0>        -0.5128
      6 C5          0.0345   -2.0031    1.1397 C.ar      1 <0>         0.5763
      7 N2          0.0220   -0.6797    1.1390 N.ar      1 <0>        -0.5673
      8 N3          0.0493   -2.6822    2.3569 N.pl3     1 <0>        -0.3307
      9 C6          0.0419   -2.1125    3.5949 C.2       1 <0>         0.3304
     10 C7          0.0615   -3.1218    4.5077 C.2       1 <0>        -0.2595
     11 C8          0.0813   -4.3326    3.8086 C.2       1 <0>         0.1067
     12 N4          0.0685   -4.0726    2.5266 N.2       1 <0>        -0.2492
     13 C9          0.1067   -5.7063    4.4279 C.3       1 <0>        -0.0750
     14 N5          0.0189   -0.7485    3.8745 N.am      1 <0>        -0.6329
     15 C10         0.0140   -0.3228    5.1532 C.2       1 <0>         0.6146
     16 O1          0.0296   -1.1303    6.0635 O.2       1 <0>        -0.4820
     17 C11        -0.0102    1.1147    5.4479 C.2       1 <0>        -0.1088
     18 C12        -0.0120    1.6694    6.6950 C.2       1 <0>        -0.0048
     19 C13        -0.0391    3.0593    6.5054 C.2       1 <0>        -0.2849
     20 C14        -0.0550    3.2858    5.1335 C.2       1 <0>         0.0961
     21 O2         -0.0286    2.1062    4.5277 O.3       1 <0>        -0.1415
     22 C15        -0.0922    4.6682    4.5337 C.3       1 <0>        -0.0499
     23 C16        -0.6116    5.6591    5.5794 C.3       1 <0>        -0.1128
     24 C17         0.1922    5.5464    6.8787 C.3       1 <0>        -0.1653
     25 C18        -0.0489    4.1666    7.4736 C.2       1 <0>         0.4263
     26 O3         -0.2355    3.9927    8.6595 O.2       1 <0>        -0.4418
     27 C19         0.0103    0.9361    8.0114 C.3       1 <0>        -0.1055
     28 C20         0.0293   -2.8831   -2.4373 C.3       1 <0>        -0.1096
     29 H1          1.0042    1.8801    0.0026 H         1 <0>         0.0925
     30 H2         -0.5455    1.8639   -0.8728 H         1 <0>         0.0900
     31 H3         -0.5286    1.8543    0.9071 H         1 <0>         0.0847
     32 H4         -0.0059   -0.1730   -2.1404 H         1 <0>         0.1572
     33 H5          0.0617   -3.0077    5.5816 H         1 <0>         0.1871
     34 H6         -0.9147   -6.0555    4.5793 H         1 <0>         0.0851
     35 H7          0.6313   -6.3941    3.7648 H         1 <0>         0.0788
     36 H8          0.6218   -5.6627    5.3875 H         1 <0>         0.0859
     37 H9          0.0064   -0.1049    3.1489 H         1 <0>         0.4299
     38 H10         0.9122    4.9581    4.2249 H         1 <0>         0.1090
     39 H11        -0.7548    4.6718    3.6683 H         1 <0>         0.1034
     40 H12        -0.5224    6.6728    5.1889 H         1 <0>         0.0984
     41 H13        -1.6603    5.4459    5.7863 H         1 <0>         0.0776
     42 H14         1.2536    5.6743    6.6661 H         1 <0>         0.1061
     43 H15        -0.1368    6.3118    7.5816 H         1 <0>         0.1022
     44 H16         1.0431    0.7785    8.3220 H         1 <0>         0.0831
     45 H17        -0.5098    1.5271    8.7653 H         1 <0>         0.0829
     46 H18        -0.4864   -0.0276    7.8989 H         1 <0>         0.0922
     47 H19         1.0579   -3.0617   -2.7507 H         1 <0>         0.0921
     48 H20        -0.4709   -3.8373   -2.2714 H         1 <0>         0.0881
     49 H21        -0.4961   -2.3278   -3.2144 H         1 <0>         0.0874
@<TRIPOS>BOND
     1    1    2 1
     2    1   29 1
     3    1   30 1
     4    1   31 1
     5    2    7 ar
     6    2    3 ar
     7    3    4 ar
     8    3   32 1
     9    4    5 ar
    10    4   28 1
    11    5    6 ar
    12    6    7 ar
    13    6    8 1
    14    8   12 1
    15    8    9 1
    16    9   10 2
    17    9   14 1
    18   10   11 1
    19   10   33 1
    20   11   12 2
    21   11   13 1
    22   13   34 1
    23   13   35 1
    24   13   36 1
    25   14   15 am
    26   14   37 1
    27   15   16 2
    28   15   17 1
    29   17   21 1
    30   17   18 2
    31   18   19 1
    32   18   27 1
    33   19   25 1
    34   19   20 2
    35   20   21 1
    36   20   22 1
    37   22   23 1
    38   22   38 1
    39   22   39 1
    40   23   24 1
    41   23   40 1
    42   23   41 1
    43   24   25 1
    44   24   42 1
    45   24   43 1
    46   25   26 2
    47   27   44 1
    48   27   45 1
    49   27   46 1
    50   28   47 1
    51   28   48 1
    52   28   49 1
