@<TRIPOS>MOLECULE
ZINC39674349
   65    68     0     0     0
SMALL
USER_CHARGES

@<TRIPOS>ATOM
      1 C1         -1.7561    1.9059   -2.0881 C.3       1 <0>        -0.1310
      2 C2         -1.1087    0.5802   -1.7808 C.ar      1 <0>        -0.0566
      3 C3         -1.0207   -0.3864   -2.7608 C.ar      1 <0>        -0.0531
      4 C4         -0.4208   -1.6138   -2.4746 C.ar      1 <0>        -0.1154
      5 C5          0.0869   -1.8551   -1.1966 C.ar      1 <0>        -0.1007
      6 C6         -0.0070   -0.8809   -0.2252 C.ar      1 <0>        -0.0923
      7 C7         -0.5983    0.3370   -0.5169 C.ar      1 <0>        -0.0690
      8 Br1        -0.7161    1.6704    0.8187 Br        1 <0>        -0.0285
      9 C8         -0.3237   -2.6540   -3.5202 C.2       1 <0>         0.5954
     10 O1         -0.3783   -2.3428   -4.6940 O.2       1 <0>        -0.5239
     11 N1         -0.1748   -3.9475   -3.1721 N.am      1 <0>        -0.6136
     12 C9         -0.2050   -4.5308   -1.8103 C.3       1 <0>         0.1033
     13 C10        -0.9686   -5.8641   -1.9735 C.3       1 <0>        -0.1156
     14 H1         -0.5333   -6.6316   -1.3335 H         1 <0>         0.1185
     15 C11        -0.7919   -6.2386   -3.4546 C.3       1 <0>        -0.0724
     16 C12         0.0498   -5.1089   -4.0659 C.3       1 <0>         0.1078
     17 C13        -0.0597   -7.5712   -3.5791 C.3       1 <0>        -0.1339
     18 C14         0.0524   -7.9504   -5.0585 C.3       1 <0>        -0.0103
     19 N2         -1.2903   -8.0507   -5.6431 N.4       1 <0>        -0.5050
     20 C15        -1.9528   -6.7414   -5.6031 C.3       1 <0>        -0.0095
     21 C16        -2.1498   -6.3111   -4.1467 C.3       1 <0>        -0.1470
     22 C17        -2.4279   -5.6763   -1.6478 C.2       1 <0>         0.5186
     23 O2         -2.9687   -4.6152   -1.8768 O.2       1 <0>        -0.5088
     24 N3         -3.1321   -6.6876   -1.1019 N.am      1 <0>        -0.7242
     25 C18        -4.5508   -6.5050   -0.7852 C.3       1 <0>         0.2143
     26 H2         -5.0101   -5.8599   -1.5342 H         1 <0>         0.1075
     27 C19        -4.6862   -5.8601    0.5956 C.3       1 <0>        -0.1708
     28 C20        -5.2416   -7.8443   -0.7841 C.2       1 <0>        -0.1549
     29 C21        -6.3184   -8.2149   -1.4804 C.2       1 <0>        -0.0134
     30 N4         -6.6437   -9.4993   -1.2141 N.2       1 <0>        -0.1605
     31 N5         -5.9013  -10.0579   -0.4028 N.2       1 <0>        -0.1413
     32 C22        -4.8706   -9.0878    0.0045 C.3       1 <0>        -0.0318
     33 H3         -3.8768   -9.4385   -0.2738 H         1 <0>         0.1409
     34 C23        -4.9494   -8.8182    1.5085 C.3       1 <0>        -0.1207
     35 C24        -7.0694   -7.3221   -2.4343 C.3       1 <0>        -0.0941
     36 H4         -1.0024    2.6014   -2.4572 H         1 <0>         0.0850
     37 H5         -2.5255    1.7671   -2.8476 H         1 <0>         0.0774
     38 H6         -2.2087    2.3080   -1.1816 H         1 <0>         0.0819
     39 H7         -1.4156   -0.1940   -3.7475 H         1 <0>         0.1433
     40 H8          0.5519   -2.8030   -0.9691 H         1 <0>         0.1406
     41 H9          0.3853   -1.0664    0.7637 H         1 <0>         0.1416
     42 H10         0.8083   -4.7145   -1.4530 H         1 <0>         0.0944
     43 H11        -0.7364   -3.8699   -1.1255 H         1 <0>         0.1085
     44 H12        -0.2931   -4.8838   -5.0758 H         1 <0>         0.0908
     45 H13         1.1043   -5.3846   -4.0738 H         1 <0>         0.0873
     46 H14         0.9382   -7.4795   -3.1504 H         1 <0>         0.1231
     47 H15        -0.6156   -8.3430   -3.0468 H         1 <0>         0.0966
     48 H16         0.6223   -7.1863   -5.5870 H         1 <0>         0.1339
     49 H17         0.5607   -8.9103   -5.1498 H         1 <0>         0.1408
     50 H18        -1.2165   -8.3597   -6.6008 H         1 <0>         0.4350
     51 H19        -1.3351   -6.0060   -6.1186 H         1 <0>         0.1357
     52 H20        -2.9226   -6.8099   -6.0958 H         1 <0>         0.1386
     53 H21        -2.7808   -7.0376   -3.6348 H         1 <0>         0.0928
     54 H22        -2.6256   -5.3309   -4.1181 H         1 <0>         0.1256
     55 H23        -2.6996   -7.5362   -0.9187 H         1 <0>         0.3989
     56 H24        -4.1839   -6.4809    1.3374 H         1 <0>         0.0705
     57 H25        -4.2295   -4.8705    0.5808 H         1 <0>         0.0739
     58 H26        -5.7417   -5.7693    0.8523 H         1 <0>         0.0744
     59 H27        -5.9357   -8.4259    1.7562 H         1 <0>         0.0676
     60 H28        -4.7805   -9.7470    2.0535 H         1 <0>         0.0826
     61 H29        -4.1881   -8.0897    1.7875 H         1 <0>         0.0807
     62 H30        -6.6453   -7.4198   -3.4337 H         1 <0>         0.0777
     63 H31        -8.1193   -7.6143   -2.4551 H         1 <0>         0.0867
     64 H32        -6.9869   -6.2866   -2.1042 H         1 <0>         0.0789
     65 H33        -1.8353   -8.7181   -5.1181 H         1 <0>         0.4271
@<TRIPOS>BOND
     1    1    2 1
     2    1   36 1
     3    1   37 1
     4    1   38 1
     5    2    7 ar
     6    2    3 ar
     7    3    4 ar
     8    3   39 1
     9    4    5 ar
    10    4    9 1
    11    5    6 ar
    12    5   40 1
    13    6    7 ar
    14    6   41 1
    15    7    8 1
    16    9   10 2
    17    9   11 am
    18   11   16 1
    19   11   12 1
    20   12   13 1
    21   12   42 1
    22   12   43 1
    23   13   14 1
    24   13   15 1
    25   13   22 1
    26   15   21 1
    27   15   16 1
    28   15   17 1
    29   16   44 1
    30   16   45 1
    31   17   18 1
    32   17   46 1
    33   17   47 1
    34   18   19 1
    35   18   48 1
    36   18   49 1
    37   19   20 1
    38   19   50 1
    39   19   65 1
    40   20   21 1
    41   20   51 1
    42   20   52 1
    43   21   53 1
    44   21   54 1
    45   22   23 2
    46   22   24 am
    47   24   25 1
    48   24   55 1
    49   25   26 1
    50   25   27 1
    51   25   28 1
    52   27   56 1
    53   27   57 1
    54   27   58 1
    55   28   32 1
    56   28   29 2
    57   29   30 1
    58   29   35 1
    59   30   31 2
    60   31   32 1
    61   32   33 1
    62   32   34 1
    63   34   59 1
    64   34   60 1
    65   34   61 1
    66   35   62 1
    67   35   63 1
    68   35   64 1
