@<TRIPOS>MOLECULE
ZINC48234764
   57    60     0     0     0
SMALL
USER_CHARGES

@<TRIPOS>ATOM
      1 C1         -2.6791   -4.5061   -1.1336 C.2       1 <0>        -0.2655
      2 C2         -2.5263   -3.6129   -2.1991 C.2       1 <0>         0.0426
      3 N1         -1.3183   -3.1134   -2.1435 N.2       1 <0>        -0.2711
      4 N2         -0.6633   -3.6738   -1.0394 N.pl3     1 <0>        -0.3787
      5 C3         -1.5196   -4.5249   -0.4365 C.2       1 <0>         0.0437
      6 C4          0.7091   -3.3869   -0.6144 C.3       1 <0>         0.1007
      7 C5          1.6673   -3.6401   -1.7800 C.3       1 <0>         0.1070
      8 H1          1.5301   -4.6565   -2.1491 H         1 <0>         0.1005
      9 C6          3.1098   -3.4613   -1.3024 C.3       1 <0>         0.0210
     10 N3          4.0319   -3.7688   -2.4038 N.3       1 <0>        -0.5254
     11 C7          5.3584   -3.1853   -2.1587 C.3       1 <0>         0.0292
     12 C8          6.2693   -3.4769   -3.3532 C.3       1 <0>        -0.0043
     13 N4          6.3815   -4.9294   -3.5405 N.4       1 <0>        -0.3850
     14 C9          5.0524   -5.4943   -3.8087 C.3       1 <0>        -0.0036
     15 C10         4.1314   -5.2195   -2.6180 C.3       1 <0>         0.0261
     16 C11         7.2704   -5.2091   -4.6761 C.3       1 <0>         0.1390
     17 C12         8.6346   -4.6312   -4.4004 C.ar      1 <0>        -0.1482
     18 C13         9.1807   -4.7235   -3.1338 C.ar      1 <0>        -0.0909
     19 C14        10.4318   -4.1943   -2.8799 C.ar      1 <0>        -0.1396
     20 C15        11.1384   -3.5715   -3.8948 C.ar      1 <0>         0.1335
     21 C16        10.5905   -3.4797   -5.1630 C.ar      1 <0>        -0.1401
     22 C17         9.3414   -4.0143   -5.4158 C.ar      1 <0>        -0.0529
     23 F1         12.3614   -3.0534   -3.6476 F         1 <0>        -0.1221
     24 C18         7.3857   -6.6994   -4.8686 C.ar      1 <0>        -0.1481
     25 C19         7.4730   -7.5330   -3.7693 C.ar      1 <0>        -0.0915
     26 C20         7.5783   -8.8998   -3.9445 C.ar      1 <0>        -0.1394
     27 C21         7.5963   -9.4341   -5.2217 C.ar      1 <0>         0.1334
     28 C22         7.5087   -8.5981   -6.3220 C.ar      1 <0>        -0.1397
     29 C23         7.3982   -7.2321   -6.1442 C.ar      1 <0>        -0.0531
     30 F2          7.6996  -10.7701   -5.3943 F         1 <0>        -0.1220
     31 O1          1.3949   -2.7109   -2.8310 O.3       1 <0>        -0.5239
     32 H2         -3.5673   -5.0765   -0.9051 H         1 <0>         0.1493
     33 H3         -3.2760   -3.3763   -2.9397 H         1 <0>         0.1845
     34 H4         -1.3159   -5.1151    0.4448 H         1 <0>         0.1720
     35 H5          0.7827   -2.3449   -0.3032 H         1 <0>         0.0895
     36 H6          0.9738   -4.0352    0.2209 H         1 <0>         0.1022
     37 H7          3.2605   -2.4313   -0.9792 H         1 <0>         0.0952
     38 H8          3.3025   -4.1358   -0.4681 H         1 <0>         0.0602
     39 H9          5.2631   -2.1073   -2.0286 H         1 <0>         0.1260
     40 H10         5.7880   -3.6240   -1.2581 H         1 <0>         0.0593
     41 H11         5.8464   -3.0263   -4.2511 H         1 <0>         0.1430
     42 H12         7.2579   -3.0571   -3.1672 H         1 <0>         0.1372
     43 H13         4.6357   -5.0334   -4.7043 H         1 <0>         0.1434
     44 H14         5.1388   -6.5702   -3.9605 H         1 <0>         0.1369
     45 H15         4.5407   -5.6918   -1.7250 H         1 <0>         0.0600
     46 H16         3.1409   -5.6256   -2.8231 H         1 <0>         0.1242
     47 H17         6.8599   -4.7569   -5.5789 H         1 <0>         0.1547
     48 H18         8.6292   -5.2089   -2.3422 H         1 <0>         0.1244
     49 H19        10.8581   -4.2661   -1.8902 H         1 <0>         0.1493
     50 H20        11.1406   -2.9939   -5.9553 H         1 <0>         0.1520
     51 H21         8.9157   -3.9468   -6.4061 H         1 <0>         0.1460
     52 H22         7.4593   -7.1160   -2.7731 H         1 <0>         0.1242
     53 H23         7.6469   -9.5509   -3.0856 H         1 <0>         0.1493
     54 H24         7.5230   -9.0138   -7.3187 H         1 <0>         0.1521
     55 H25         7.3254   -6.5802   -7.0022 H         1 <0>         0.1460
     56 H26         1.4975   -1.7845   -2.5733 H         1 <0>         0.3750
     57 H27         6.7621   -5.3477   -2.7050 H         1 <0>         0.4124
@<TRIPOS>BOND
     1    1    5 2
     2    1    2 1
     3    1   32 1
     4    2    3 2
     5    2   33 1
     6    3    4 1
     7    4    5 1
     8    4    6 1
     9    5   34 1
    10    6    7 1
    11    6   35 1
    12    6   36 1
    13    7    8 1
    14    7    9 1
    15    7   31 1
    16    9   10 1
    17    9   37 1
    18    9   38 1
    19   10   15 1
    20   10   11 1
    21   11   12 1
    22   11   39 1
    23   11   40 1
    24   12   13 1
    25   12   41 1
    26   12   42 1
    27   13   14 1
    28   13   16 1
    29   13   57 1
    30   14   15 1
    31   14   43 1
    32   14   44 1
    33   15   45 1
    34   15   46 1
    35   16   17 1
    36   16   24 1
    37   16   47 1
    38   17   22 ar
    39   17   18 ar
    40   18   19 ar
    41   18   48 1
    42   19   20 ar
    43   19   49 1
    44   20   21 ar
    45   20   23 1
    46   21   22 ar
    47   21   50 1
    48   22   51 1
    49   24   29 ar
    50   24   25 ar
    51   25   26 ar
    52   25   52 1
    53   26   27 ar
    54   26   53 1
    55   27   28 ar
    56   27   30 1
    57   28   29 ar
    58   28   54 1
    59   29   55 1
    60   31   56 1
