@<TRIPOS>MOLECULE
ZINC31946390
   39    39     0     0     0
SMALL
USER_CHARGES
(2R)-N-(2-aminoethyl)-2-[2-(4-chloroanilino)-2-oxo-ethyl]sulfanyl-propanamide
@<TRIPOS>ATOM
      1 C1         -0.5334    3.1656   -3.9622 C.3       1 <0>        -0.1506
      2 C2         -1.0071    1.7501   -3.6260 C.3       1 <0>        -0.1184
      3 H1         -2.0437    1.8728   -3.2791 H         1 <0>         0.1084
      4 C3         -0.2757    1.2521   -2.4062 C.2       1 <0>         0.5400
      5 O1          0.7234    0.5761   -2.5321 O.2       1 <0>        -0.5031
      6 N1         -0.7317    1.5579   -1.1754 N.am      1 <0>        -0.7448
      7 C4         -0.0206    1.0737    0.0105 C.3       1 <0>         0.0948
      8 C5         -0.7408    1.5584    1.2703 C.3       1 <0>        -0.0117
      9 N2         -0.0278    1.0729    2.4594 N.4       1 <0>        -0.6833
     10 S1         -0.6659    0.6496   -5.0270 S.3       1 <0>        -0.0738
     11 C6         -1.7241    1.2883   -6.3548 C.3       1 <0>        -0.1506
     12 C7         -1.5350    0.4520   -7.5941 C.2       1 <0>         0.5334
     13 O2         -0.7624   -0.4829   -7.5828 O.2       1 <0>        -0.4987
     14 N3         -2.2244    0.7430   -8.7150 N.am      1 <0>        -0.6802
     15 C8         -1.9784    0.0285   -9.8932 C.ar      1 <0>         0.1484
     16 C9         -2.0588    0.6672  -11.1236 C.ar      1 <0>        -0.1305
     17 C10        -1.8110   -0.0390  -12.2844 C.ar      1 <0>        -0.0906
     18 C11        -1.4930   -1.3844  -12.2227 C.ar      1 <0>        -0.0474
     19 C12        -1.4174   -2.0245  -10.9982 C.ar      1 <0>        -0.0905
     20 C13        -1.6592   -1.3217   -9.8341 C.ar      1 <0>        -0.1104
     21 Cl1        -1.1880   -2.2705  -13.6840 Cl        1 <0>        -0.0641
     22 H2         -1.0673    3.5291   -4.8526 H         1 <0>         0.0751
     23 H3          0.5480    3.1523   -4.1631 H         1 <0>         0.0787
     24 H4         -0.7404    3.8330   -3.1126 H         1 <0>         0.0680
     25 H5         -1.6378    2.1710   -1.0612 H         1 <0>         0.4307
     26 H6          0.0017   -0.0260    0.0011 H         1 <0>         0.0880
     27 H7          1.0088    1.4614    0.0045 H         1 <0>         0.0873
     28 H8         -0.7631    2.6581    1.2797 H         1 <0>         0.1352
     29 H9         -1.7702    1.1707    1.2763 H         1 <0>         0.1356
     30 H10        -0.5456    1.4214    3.3652 H         1 <0>         0.4660
     31 H11         1.0016    1.4606    2.4534 H         1 <0>         0.4607
     32 H12        -2.7767    1.2427   -6.0388 H         1 <0>         0.1182
     33 H13        -1.4512    2.3317   -6.5714 H         1 <0>         0.1195
     34 H14        -2.9804    1.5420   -8.7039 H         1 <0>         0.4387
     35 H15        -2.3109    1.7162  -11.1726 H         1 <0>         0.1363
     36 H16        -1.8690    0.4584  -13.2413 H         1 <0>         0.1397
     37 H17        -1.1687   -3.0745  -10.9527 H         1 <0>         0.1383
     38 H18        -1.5997   -1.8216   -8.8787 H         1 <0>         0.1468
     39 H19        -0.0055   -0.0268    2.4500 H         1 <0>         0.4610
@<TRIPOS>BOND
     1    1    2 1
     2    1   22 1
     3    1   23 1
     4    1   24 1
     5    2    3 1
     6    2    4 1
     7    2   10 1
     8    4    5 2
     9    4    6 am
    10    6    7 1
    11    6   25 1
    12    7    8 1
    13    7   26 1
    14    7   27 1
    15    8    9 1
    16    8   28 1
    17    8   29 1
    18    9   30 1
    19    9   31 1
    20    9   39 1
    21   10   11 1
    22   11   12 1
    23   11   32 1
    24   11   33 1
    25   12   13 2
    26   12   14 am
    27   14   15 1
    28   14   34 1
    29   15   20 ar
    30   15   16 ar
    31   16   17 ar
    32   16   35 1
    33   17   18 ar
    34   17   36 1
    35   18   19 ar
    36   18   21 1
    37   19   20 ar
    38   19   37 1
    39   20   38 1
