@<TRIPOS>MOLECULE
ZINC44530469
   43    44     0     0     0
SMALL
USER_CHARGES

@<TRIPOS>ATOM
      1 C1          0.2099    1.7330    1.6097 C.3       1 <0>        -0.1143
      2 C2          1.6762    2.1739    1.6199 C.3       1 <0>        -0.1333
      3 C3          2.4793    1.2277    2.5167 C.3       1 <0>        -0.1145
      4 H1          2.1065    1.2913    3.5390 H         1 <0>         0.1069
      5 C4          2.3248   -0.2062    2.0048 C.3       1 <0>         0.0621
      6 N1          0.9049   -0.5807    2.0150 N.3       1 <0>        -0.5183
      7 C5          0.1212    0.2844    1.1241 C.3       1 <0>         0.0431
      8 C6          0.7312   -1.9958    1.6614 C.3       1 <0>         0.0371
      9 C7         -0.6959   -2.4063    1.9184 C.2       1 <0>         0.5222
     10 O1         -1.4900   -1.5993    2.3534 O.2       1 <0>        -0.5134
     11 N2         -1.0897   -3.6700    1.6650 N.am      1 <0>        -0.7159
     12 C8         -2.4770   -4.0690    1.9148 C.3       1 <0>         0.1350
     13 H2         -2.9300   -3.3435    2.5905 H         1 <0>         0.1365
     14 C9         -2.4759   -5.4516    2.6047 C.3       1 <0>        -0.5837
     15 S1         -3.9639   -6.2351    1.8436 S.o2      1 <0>         2.3742
     16 O2         -5.1296   -5.7917    2.5246 O.2       1 <0>        -0.9113
     17 O3         -3.7303   -7.6270    1.6783 O.2       1 <0>        -0.9151
     18 C10        -3.8587   -5.3970    0.2023 C.3       1 <0>        -0.5809
     19 C11        -3.2347   -4.0431    0.5959 C.3       1 <0>        -0.0253
     20 H3         -4.0321   -3.3034    0.6673 H         1 <0>         0.1317
     21 Cl1        -2.1005   -3.5325   -0.7093 Cl        1 <0>        -0.1423
     22 C12         3.9563    1.6256    2.4859 C.3       1 <0>        -0.0044
     23 N3          4.1172    2.9576    3.0843 N.4       1 <0>        -0.6373
     24 H4         -0.1987    1.8045    2.6177 H         1 <0>         0.0799
     25 H5         -0.3592    2.3771    0.9393 H         1 <0>         0.0791
     26 H6          2.0739    2.1397    0.6056 H         1 <0>         0.0756
     27 H7          1.7481    3.1906    2.0062 H         1 <0>         0.0627
     28 H8          2.7105   -0.2721    0.9874 H         1 <0>         0.0468
     29 H9          2.8839   -0.8842    2.6496 H         1 <0>         0.0877
     30 H10        -0.9202   -0.0372    1.1293 H         1 <0>         0.1039
     31 H11         0.5172    0.2162    0.1109 H         1 <0>         0.0344
     32 H12         0.9658   -2.1382    0.6065 H         1 <0>         0.0719
     33 H13         1.3998   -2.6067    2.2680 H         1 <0>         0.1103
     34 H14        -0.4546   -4.3154    1.3171 H         1 <0>         0.4085
     35 H15        -1.5717   -6.0099    2.3620 H         1 <0>         0.1501
     36 H16        -2.5946   -5.3513    3.6836 H         1 <0>         0.1556
     37 H17        -3.2055   -5.9453   -0.4765 H         1 <0>         0.1557
     38 H18        -4.8488   -5.2622   -0.2331 H         1 <0>         0.1576
     39 H19         4.5400    0.8999    3.0524 H         1 <0>         0.1374
     40 H20         4.3056    1.6465    1.4536 H         1 <0>         0.1342
     41 H21         3.7939    2.9382    4.0399 H         1 <0>         0.4367
     42 H22         5.0912    3.2200    3.0640 H         1 <0>         0.4393
     43 H23         3.5769    3.6293    2.5600 H         1 <0>         0.4338
@<TRIPOS>BOND
     1    1    7 1
     2    1    2 1
     3    1   24 1
     4    1   25 1
     5    2    3 1
     6    2   26 1
     7    2   27 1
     8    3    4 1
     9    3    5 1
    10    3   22 1
    11    5    6 1
    12    5   28 1
    13    5   29 1
    14    6    7 1
    15    6    8 1
    16    7   30 1
    17    7   31 1
    18    8    9 1
    19    8   32 1
    20    8   33 1
    21    9   10 2
    22    9   11 am
    23   11   12 1
    24   11   34 1
    25   12   13 1
    26   12   19 1
    27   12   14 1
    28   14   15 1
    29   14   35 1
    30   14   36 1
    31   15   16 2
    32   15   17 2
    33   15   18 1
    34   18   19 1
    35   18   37 1
    36   18   38 1
    37   19   20 1
    38   19   21 1
    39   22   23 1
    40   22   39 1
    41   22   40 1
    42   23   41 1
    43   23   42 1
    44   23   43 1
