@<TRIPOS>MOLECULE
ZINC33174222
   50    53     0     0     0
SMALL
USER_CHARGES
(3R)-N-(3,4-dimethylphenyl)-1-thieno[3,2-c]pyridin-4-yl-piperidine-3-carboxamide
@<TRIPOS>ATOM
      1 C1          3.8884  -10.9875    0.0093 C.3       1 <0>        -0.1182
      2 C2          4.2181   -9.5171   -0.0110 C.ar      1 <0>        -0.0941
      3 C3          3.3472   -8.6228   -0.6065 C.ar      1 <0>        -0.0977
      4 C4          3.6465   -7.2749   -0.6267 C.ar      1 <0>        -0.1223
      5 C5          4.8235   -6.8175   -0.0483 C.ar      1 <0>         0.1375
      6 C6          5.6985   -7.7186    0.5437 C.ar      1 <0>        -0.1387
      7 C7          5.3908   -9.0651    0.5652 C.ar      1 <0>        -0.0654
      8 C8          6.3371  -10.0432    1.2125 C.3       1 <0>        -0.1183
      9 N1          5.1296   -5.4523   -0.0671 N.am      1 <0>        -0.6773
     10 C9          4.1437   -4.5391    0.0357 C.2       1 <0>         0.5199
     11 O1          3.0036   -4.8982    0.2414 O.2       1 <0>        -0.5259
     12 C10         4.4579   -3.0720   -0.1049 C.3       1 <0>        -0.1001
     13 H1          4.8886   -2.9010   -1.1025 H         1 <0>         0.1220
     14 C11         5.4594   -2.6577    0.9767 C.3       1 <0>        -0.1226
     15 C12         5.7271   -1.1542    0.8645 C.3       1 <0>        -0.1161
     16 C13         4.4054   -0.3944    0.9983 C.3       1 <0>         0.0416
     17 N2          3.4821   -0.8256   -0.0590 N.pl3     1 <0>        -0.4969
     18 C14         3.1731   -2.2565    0.0570 C.3       1 <0>         0.0632
     19 C15         2.3221   -0.0637   -0.0476 C.ar      1 <0>         0.4052
     20 C16         2.0213    0.7748   -1.1541 C.ar      1 <0>        -0.0735
     21 C17         2.7666    0.9914   -2.3827 C.2       1 <0>        -0.1256
     22 C18         2.2847    1.8419   -3.3014 C.2       1 <0>        -0.1229
     23 S1          0.7661    2.4263   -2.5718 S.3       1 <0>         0.1872
     24 C19         0.8215    1.5130   -1.0548 C.ar      1 <0>        -0.0817
     25 C20         0.0098    1.4062    0.0596 C.ar      1 <0>        -0.0661
     26 C21         0.3881    0.5690    1.0742 C.ar      1 <0>         0.1158
     27 N3          1.5124   -0.1262    0.9882 N.ar      1 <0>        -0.4991
     28 H2          2.9238  -11.1539   -0.4925 H         1 <0>         0.0663
     29 H3          3.8244  -11.3346    1.0512 H         1 <0>         0.0717
     30 H4          4.6764  -11.5472   -0.5159 H         1 <0>         0.0726
     31 H5          2.4323   -8.9791   -1.0564 H         1 <0>         0.1266
     32 H6          2.9658   -6.5769   -1.0915 H         1 <0>         0.1279
     33 H7          6.6168   -7.3667    0.9901 H         1 <0>         0.1256
     34 H8          7.2073   -9.5018    1.6121 H         1 <0>         0.0657
     35 H9          6.6733  -10.7772    0.4654 H         1 <0>         0.0745
     36 H10         5.8214  -10.5645    2.0324 H         1 <0>         0.0737
     37 H11         6.1749   -5.1243   -0.1658 H         1 <0>         0.4353
     38 H12         5.0428   -2.8858    1.9689 H         1 <0>         0.0752
     39 H13         6.3994   -3.2117    0.8376 H         1 <0>         0.0880
     40 H14         6.4136   -0.8432    1.6657 H         1 <0>         0.0949
     41 H15         6.1811   -0.9345   -0.1131 H         1 <0>         0.0895
     42 H16         3.9597   -0.6045    1.9818 H         1 <0>         0.0535
     43 H17         4.5920    0.6855    0.9035 H         1 <0>         0.1001
     44 H18         2.4568   -2.5412   -0.7277 H         1 <0>         0.1047
     45 H19         2.7334   -2.4572    1.0451 H         1 <0>         0.0611
     46 H20         3.6986    0.4734   -2.5542 H         1 <0>         0.1682
     47 H21         2.7139    2.1087   -4.2559 H         1 <0>         0.2154
     48 H22        -0.9087    1.9703    0.1264 H         1 <0>         0.1885
     49 H23        -0.2350    0.4741    1.9512 H         1 <0>         0.2131
     50 H24         1.7566   -0.7798    1.8386 H         1 <0>         0.4778
@<TRIPOS>BOND
     1    1    2 1
     2    1   28 1
     3    1   29 1
     4    1   30 1
     5    2    7 ar
     6    2    3 ar
     7    3    4 ar
     8    3   31 1
     9    4    5 ar
    10    4   32 1
    11    5    6 ar
    12    5    9 1
    13    6    7 ar
    14    6   33 1
    15    7    8 1
    16    8   34 1
    17    8   35 1
    18    8   36 1
    19    9   10 am
    20    9   37 1
    21   10   11 2
    22   10   12 1
    23   12   13 1
    24   12   18 1
    25   12   14 1
    26   14   15 1
    27   14   38 1
    28   14   39 1
    29   15   16 1
    30   15   40 1
    31   15   41 1
    32   16   17 1
    33   16   42 1
    34   16   43 1
    35   17   18 1
    36   17   19 1
    37   18   44 1
    38   18   45 1
    39   19   27 ar
    40   19   20 ar
    41   20   24 ar
    42   20   21 1
    43   21   22 2
    44   21   46 1
    45   22   23 1
    46   22   47 1
    47   23   24 1
    48   24   25 ar
    49   25   26 ar
    50   25   48 1
    51   26   27 ar
    52   26   49 1
    53   27   50 1
