@<TRIPOS>MOLECULE
ZINC30946015
   46    48     0     0     0
SMALL
USER_CHARGES
(2R)-N-(4-carbamoylphenyl)-6-methyl-4-methylsulfonyl-2,3-dihydro-1,4-benzoxazine-2-carboxamide
@<TRIPOS>ATOM
      1 C1          0.8135    6.3593    0.8922 C.3       1 <0>        -0.1171
      2 C2          0.1206    5.2721    1.6725 C.ar      1 <0>        -0.0765
      3 C3         -0.4057    5.5463    2.9212 C.ar      1 <0>        -0.1043
      4 C4         -1.0510    4.5588    3.6357 C.ar      1 <0>        -0.1088
      5 C5         -1.1627    3.2801    3.1113 C.ar      1 <0>         0.0929
      6 C6         -0.6263    3.0028    1.8579 C.ar      1 <0>         0.0994
      7 C7          0.0114    4.0011    1.1388 C.ar      1 <0>        -0.1348
      8 N1         -0.7369    1.7102    1.3214 N.pl3     1 <0>        -0.9402
      9 C8         -1.6721    0.7767    1.9722 C.3       1 <0>         0.0794
     10 C9         -1.5184    0.9494    3.4901 C.3       1 <0>         0.0703
     11 H1         -0.4940    0.7396    3.8316 H         1 <0>         0.1150
     12 O1         -1.7908    2.3113    3.8288 O.3       1 <0>        -0.2850
     13 C10        -2.4928    0.0471    4.2024 C.2       1 <0>         0.5270
     14 O2         -3.3874    0.5253    4.8672 O.2       1 <0>        -0.4838
     15 N2         -2.3702   -1.2912    4.1006 N.am      1 <0>        -0.6820
     16 C11        -3.2018   -2.1262    4.8460 C.ar      1 <0>         0.1787
     17 C12        -3.6216   -1.7357    6.1136 C.ar      1 <0>        -0.1325
     18 C13        -4.4467   -2.5555    6.8501 C.ar      1 <0>        -0.0633
     19 C14        -4.8534   -3.7862    6.3277 C.ar      1 <0>        -0.1539
     20 C15        -4.4256   -4.1778    5.0562 C.ar      1 <0>        -0.0380
     21 C16        -3.6053   -3.3506    4.3226 C.ar      1 <0>        -0.1512
     22 C17        -5.7326   -4.6707    7.1172 C.2       1 <0>         0.5645
     23 O3         -6.0853   -5.7413    6.6615 O.2       1 <0>        -0.5497
     24 N3         -6.1443   -4.2916    8.3432 N.am      1 <0>        -0.8741
     25 S1          0.1580    1.2489    0.0067 S.o2      1 <0>         2.6023
     26 O4          0.2826   -0.1613    0.1296 O.2       1 <0>        -0.9427
     27 O5          1.3078    2.0833    0.0398 O.2       1 <0>        -0.9316
     28 C18        -0.8729    1.6624   -1.4274 C.3       1 <0>        -0.6709
     29 H2          0.8016    7.2927    1.4741 H         1 <0>         0.0697
     30 H3          0.2902    6.5157   -0.0626 H         1 <0>         0.0714
     31 H4          1.8544    6.0630    0.6956 H         1 <0>         0.0748
     32 H5         -0.3182    6.5400    3.3351 H         1 <0>         0.1350
     33 H6         -1.4597    4.7797    4.6107 H         1 <0>         0.1391
     34 H7          0.4221    3.7869    0.1631 H         1 <0>         0.1470
     35 H8         -2.7007    1.0121    1.6615 H         1 <0>         0.1022
     36 H9         -1.4266   -0.2540    1.6765 H         1 <0>         0.1253
     37 H10        -1.6141   -1.7248    3.4295 H         1 <0>         0.4425
     38 H11        -3.3030   -0.7866    6.5188 H         1 <0>         0.1403
     39 H12        -4.7758   -2.2498    7.8323 H         1 <0>         0.1306
     40 H13        -4.7379   -5.1284    4.6497 H         1 <0>         0.1417
     41 H14        -3.2743   -3.6526    3.3399 H         1 <0>         0.1366
     42 H15        -6.7995   -4.9508    8.9316 H         1 <0>         0.4269
     43 H16        -5.8251   -3.3230    8.7555 H         1 <0>         0.4183
     44 H17        -0.3445    1.3841   -2.3512 H         1 <0>         0.1398
     45 H18        -1.0767    2.7433   -1.4329 H         1 <0>         0.1356
     46 H19        -1.8225    1.1105   -1.3677 H         1 <0>         0.1341
@<TRIPOS>BOND
     1    1    2 1
     2    1   29 1
     3    1   30 1
     4    1   31 1
     5    2    7 ar
     6    2    3 ar
     7    3    4 ar
     8    3   32 1
     9    4    5 ar
    10    4   33 1
    11    5   12 1
    12    5    6 ar
    13    6    7 ar
    14    6    8 1
    15    7   34 1
    16    8    9 1
    17    8   25 1
    18    9   10 1
    19    9   35 1
    20    9   36 1
    21   10   11 1
    22   10   12 1
    23   10   13 1
    24   13   14 2
    25   13   15 am
    26   15   16 1
    27   15   37 1
    28   16   21 ar
    29   16   17 ar
    30   17   18 ar
    31   17   38 1
    32   18   19 ar
    33   18   39 1
    34   19   20 ar
    35   19   22 1
    36   20   21 ar
    37   20   40 1
    38   21   41 1
    39   22   23 2
    40   22   24 am
    41   24   42 1
    42   24   43 1
    43   25   26 2
    44   25   27 2
    45   25   28 1
    46   28   44 1
    47   28   45 1
    48   28   46 1
