@<TRIPOS>MOLECULE
ZINC66799081
   37    39     0     0     0
SMALL
USER_CHARGES

@<TRIPOS>ATOM
      1 C1         -0.3065    1.4320    0.3217 C.3       1 <0>         0.0985
      2 N1          0.0105    0.0196    0.0963 N.am      1 <0>        -0.5924
      3 C2          0.1681   -0.8867    1.2364 C.3       1 <0>         0.2561
      4 H1          0.3019   -1.9061    0.8744 H         1 <0>         0.1412
      5 C3         -1.0613   -0.8195    2.1053 C.ar      1 <0>        -0.0986
      6 C4         -2.2973   -0.5767    1.5356 C.ar      1 <0>        -0.0653
      7 C5         -3.4255   -0.5153    2.3313 C.ar      1 <0>        -0.1491
      8 C6         -3.3176   -0.6970    3.6997 C.ar      1 <0>         0.1046
      9 C7         -2.0792   -0.9400    4.2692 C.ar      1 <0>        -0.1492
     10 C8         -0.9531   -1.0063    3.4708 C.ar      1 <0>        -0.0722
     11 F1         -4.4198   -0.6367    4.4786 F         1 <0>        -0.1373
     12 C9          1.3748   -0.4770    2.0408 C.ar      1 <0>         0.3101
     13 N2          1.5552    0.7979    2.3224 N.ar      1 <0>        -0.5001
     14 C10         2.6030    1.1950    3.0264 C.ar      1 <0>         0.1493
     15 C11         3.5158    0.2501    3.4681 C.ar      1 <0>        -0.2253
     16 C12         3.2920   -1.0807    3.1521 C.ar      1 <0>         0.1510
     17 N3          2.2187   -1.4035    2.4485 N.ar      1 <0>        -0.5069
     18 C13         0.1572   -0.4459   -1.1600 C.2       1 <0>         0.6051
     19 O1          0.3288   -1.6341   -1.3518 O.2       1 <0>        -0.5237
     20 C14         0.1093    0.4874   -2.3039 C.2       1 <0>        -0.0143
     21 C15         0.1363    0.1406   -3.6754 C.2       1 <0>        -0.1778
     22 C16         0.0721    1.3142   -4.3468 C.2       1 <0>        -0.0121
     23 N4          0.0107    2.2993   -3.4252 N.pl3     1 <0>        -0.3830
     24 H2         -0.0430    3.2463   -3.6282 H         1 <0>         0.4476
     25 N5          0.0275    1.8015   -2.2410 N.2       1 <0>        -0.2495
     26 H3         -0.4677    1.6028    1.3861 H         1 <0>         0.0845
     27 H4          0.5221    2.0501   -0.0241 H         1 <0>         0.0691
     28 H5         -1.2098    1.6941   -0.2293 H         1 <0>         0.0603
     29 H6         -2.3812   -0.4347    0.4682 H         1 <0>         0.1340
     30 H7         -4.3909   -0.3253    1.8861 H         1 <0>         0.1394
     31 H8         -1.9938   -1.0816    5.3364 H         1 <0>         0.1374
     32 H9          0.0124   -1.2003    3.9142 H         1 <0>         0.1237
     33 H10         2.7452    2.2412    3.2534 H         1 <0>         0.1710
     34 H11         4.3807    0.5439    4.0442 H         1 <0>         0.1506
     35 H12         3.9822   -1.8443    3.4791 H         1 <0>         0.1726
     36 H13         0.1955   -0.8517   -4.0977 H         1 <0>         0.1642
     37 H14         0.0707    1.4394   -5.4195 H         1 <0>         0.1867
@<TRIPOS>BOND
     1    1    2 1
     2    1   26 1
     3    1   27 1
     4    1   28 1
     5    2    3 1
     6    2   18 am
     7    3    4 1
     8    3    5 1
     9    3   12 1
    10    5   10 ar
    11    5    6 ar
    12    6    7 ar
    13    6   29 1
    14    7    8 ar
    15    7   30 1
    16    8    9 ar
    17    8   11 1
    18    9   10 ar
    19    9   31 1
    20   10   32 1
    21   12   17 ar
    22   12   13 ar
    23   13   14 ar
    24   14   15 ar
    25   14   33 1
    26   15   16 ar
    27   15   34 1
    28   16   17 ar
    29   16   35 1
    30   18   19 2
    31   18   20 1
    32   20   25 2
    33   20   21 1
    34   21   22 2
    35   21   36 1
    36   22   23 1
    37   22   37 1
    38   23   24 1
    39   23   25 1
