@<TRIPOS>MOLECULE
ZINC66262635
   33    34     0     0     0
SMALL
USER_CHARGES

@<TRIPOS>ATOM
      1 C1          0.7540   -0.3991   -1.2611 C.3       1 <0>        -0.1309
      2 C2         -0.1467   -0.3056   -0.0279 C.3       1 <0>        -0.1259
      3 H1         -0.5274    0.7113    0.0677 H         1 <0>         0.1210
      4 C3         -1.3015   -1.2624   -0.1756 C.2       1 <0>         0.5115
      5 O1         -1.2758   -2.3352    0.3885 O.2       1 <0>        -0.4307
      6 N1         -2.3630   -0.9256   -0.9348 N.am      1 <0>        -0.6880
      7 C4         -3.3958   -1.7813   -1.0668 C.2       1 <0>         0.6963
      8 O2         -3.3699   -2.8568   -0.5013 O.2       1 <0>        -0.5287
      9 N2         -4.4572   -1.4445   -1.8260 N.am      1 <0>        -0.8561
     10 S1          0.8090   -0.7352    1.4529 S.3       1 <0>         0.0057
     11 C5         -0.2698   -0.3352    2.7874 C.ar      1 <0>        -0.0818
     12 C6         -1.4821    0.2933    2.5365 C.ar      1 <0>        -0.1189
     13 C7         -2.3314    0.6068    3.5863 C.ar      1 <0>         0.0803
     14 C8         -1.9682    0.2896    4.8901 C.ar      1 <0>         0.0598
     15 C9         -0.7559   -0.3366    5.1384 C.ar      1 <0>        -0.0831
     16 C10         0.0894   -0.6536    4.0915 C.ar      1 <0>        -0.0156
     17 Cl1         1.6024   -1.4443    4.4066 Cl        1 <0>        -0.0361
     18 O3         -2.7933    0.5830    5.9337 O.3       1 <0>        -0.2999
     19 C11        -3.8271    1.5422    5.6869 C.3       1 <0>         0.0200
     20 C12        -4.5053    1.1862    4.3571 C.3       1 <0>         0.0186
     21 O4         -3.5149    1.2264    3.3240 O.3       1 <0>        -0.3037
     22 H2          1.1236   -1.4193   -1.3646 H         1 <0>         0.0776
     23 H3          0.1834   -0.1275   -2.1492 H         1 <0>         0.0818
     24 H4          1.5968    0.2829   -1.1481 H         1 <0>         0.0886
     25 H5         -2.3836   -0.0672   -1.3861 H         1 <0>         0.4104
     26 H6         -4.4778   -0.5861   -2.2773 H         1 <0>         0.4002
     27 H7         -5.2005   -2.0604   -1.9211 H         1 <0>         0.4217
     28 H8         -1.7635    0.5384    1.5230 H         1 <0>         0.1337
     29 H9         -0.4732   -0.5804    6.1518 H         1 <0>         0.1536
     30 H10        -4.5595    1.5090    6.4935 H         1 <0>         0.1278
     31 H11        -3.3946    2.5406    5.6233 H         1 <0>         0.0817
     32 H12        -4.9320    0.1850    4.4184 H         1 <0>         0.0818
     33 H13        -5.2919    1.9090    4.1405 H         1 <0>         0.1274
@<TRIPOS>BOND
     1    1    2 1
     2    1   22 1
     3    1   23 1
     4    1   24 1
     5    2    3 1
     6    2    4 1
     7    2   10 1
     8    4    5 2
     9    4    6 am
    10    6    7 am
    11    6   25 1
    12    7    8 2
    13    7    9 am
    14    9   26 1
    15    9   27 1
    16   10   11 1
    17   11   16 ar
    18   11   12 ar
    19   12   13 ar
    20   12   28 1
    21   13   21 1
    22   13   14 ar
    23   14   15 ar
    24   14   18 1
    25   15   16 ar
    26   15   29 1
    27   16   17 1
    28   18   19 1
    29   19   20 1
    30   19   30 1
    31   19   31 1
    32   20   21 1
    33   20   32 1
    34   20   33 1
