@<TRIPOS>MOLECULE
ZINC37388868
   40    42     0     0     0
SMALL
USER_CHARGES

@<TRIPOS>ATOM
      1 C1          1.1952   -1.8429    1.5328 C.3       1 <0>        -0.1478
      2 C2         -0.0742   -1.3040    0.9253 C.ar      1 <0>         0.0282
      3 C3         -0.5066   -1.7728   -0.3015 C.ar      1 <0>        -0.1323
      4 C4         -1.6709   -1.2793   -0.8587 C.ar      1 <0>        -0.0244
      5 C5         -2.4039   -0.3159   -0.1889 C.ar      1 <0>        -0.1185
      6 C6         -1.9710    0.1528    1.0382 C.ar      1 <0>         0.0088
      7 C7         -0.8090   -0.3453    1.5973 C.ar      1 <0>        -0.6858
      8 S1         -0.2612    0.2464    3.1639 S.o2      1 <0>         2.6911
      9 O1         -1.1965    1.2342    3.5747 O.2       1 <0>        -0.9394
     10 O2          0.0315   -0.8998    3.9512 O.2       1 <0>        -0.9313
     11 N1          1.1765    1.0300    2.9160 N.pl3     1 <0>        -1.1145
     12 C8          1.2171    2.2444    2.0976 C.3       1 <0>         0.1434
     13 H1          0.2092    2.4967    1.7680 H         1 <0>         0.1287
     14 C9          2.1121    2.0114    0.8783 C.3       1 <0>        -0.0279
     15 N2          3.2281    2.9603    0.8867 N.4       1 <0>        -0.3733
     16 C10         4.0556    2.7724    2.0806 C.3       1 <0>        -0.0103
     17 C11         3.2252    3.0306    3.3398 C.3       1 <0>        -0.1412
     18 C12         1.7928    3.4021    2.9237 C.3       1 <0>        -0.1102
     19 C13         1.8577    4.6483    2.0309 C.3       1 <0>        -0.1374
     20 C14         2.7346    4.3374    0.8124 C.3       1 <0>        -0.0104
     21 Br1        -3.9969    0.3604   -0.9512 Br        1 <0>        -0.0219
     22 H2          0.9587   -2.6891    2.1778 H         1 <0>         0.1080
     23 H3          1.8683   -2.1678    0.7394 H         1 <0>         0.0898
     24 H4          1.6769   -1.0615    2.1206 H         1 <0>         0.0619
     25 H5          0.0658   -2.5246   -0.8244 H         1 <0>         0.1464
     26 H6         -2.0084   -1.6453   -1.8171 H         1 <0>         0.1470
     27 H7         -2.5427    0.9051    1.5612 H         1 <0>         0.1557
     28 H8          1.9916    0.6849    3.3126 H         1 <0>         0.4233
     29 H9          2.5023    0.9940    0.9052 H         1 <0>         0.1399
     30 H10         1.5273    2.1489   -0.0312 H         1 <0>         0.1414
     31 H11         4.4349    1.7507    2.1007 H         1 <0>         0.1304
     32 H12         4.8948    3.4675    2.0520 H         1 <0>         0.1344
     33 H13         3.2045    2.1307    3.9546 H         1 <0>         0.1003
     34 H14         3.6652    3.8518    3.9056 H         1 <0>         0.1077
     35 H15         1.1751    3.5819    3.8036 H         1 <0>         0.1303
     36 H16         0.8536    4.9128    1.6994 H         1 <0>         0.1056
     37 H17         2.2896    5.4772    2.5915 H         1 <0>         0.1086
     38 H18         3.5808    5.0241    0.7903 H         1 <0>         0.1341
     39 H19         2.1460    4.4621   -0.0965 H         1 <0>         0.1326
     40 H20         3.8037    2.7833    0.0771 H         1 <0>         0.4291
@<TRIPOS>BOND
     1    1    2 1
     2    1   22 1
     3    1   23 1
     4    1   24 1
     5    2    7 ar
     6    2    3 ar
     7    3    4 ar
     8    3   25 1
     9    4    5 ar
    10    4   26 1
    11    5    6 ar
    12    5   21 1
    13    6    7 ar
    14    6   27 1
    15    7    8 1
    16    8    9 2
    17    8   10 2
    18    8   11 1
    19   11   12 1
    20   11   28 1
    21   12   13 1
    22   12   18 1
    23   12   14 1
    24   14   15 1
    25   14   29 1
    26   14   30 1
    27   15   20 1
    28   15   16 1
    29   15   40 1
    30   16   17 1
    31   16   31 1
    32   16   32 1
    33   17   18 1
    34   17   33 1
    35   17   34 1
    36   18   19 1
    37   18   35 1
    38   19   20 1
    39   19   36 1
    40   19   37 1
    41   20   38 1
    42   20   39 1
