@<TRIPOS>MOLECULE
ZINC15568940
   56    59     0     0     0
SMALL
NO_CHARGES

@<TRIPOS>ATOM
      1 C1         -1.0471    1.4861   -0.2693 C.3       1 <0>        -0.1564
      2 C2         -1.1211   -0.0420   -0.2798 C.3       1 <0>        -0.0382
      3 C3         -2.4553   -0.4959    0.2809 C.3       1 <0>        -0.1252
      4 C4         -2.6097    0.1510    1.6664 C.3       1 <0>         0.1089
      5 H1         -3.5460   -0.1841    2.1128 H         1 <0>         0.0561
      6 C5         -1.4559   -0.2188    2.5940 C.3       1 <0>        -0.0512
      7 H2         -1.4916   -1.2880    2.8026 H         1 <0>         0.0833
      8 C6         -0.0947    0.1303    1.9713 C.3       1 <0>        -0.0789
      9 H3         -0.0287    1.2065    1.8114 H         1 <0>         0.1037
     10 C7         -0.0156   -0.6290    0.6385 C.3       1 <0>        -0.0811
     11 H4         -0.1726   -1.6972    0.7881 H         1 <0>         0.0778
     12 C8          1.2470   -0.3714   -0.1913 C.3       1 <0>        -0.1121
     13 C9          0.7948   -0.7310   -1.6330 C.3       1 <0>        -0.1560
     14 C10        -0.7455   -0.5684   -1.6611 C.3       1 <0>         0.1132
     15 C11        -1.1527    0.4368   -2.7402 C.3       1 <0>         0.0931
     16 H5         -2.2304    0.5957   -2.7006 H         1 <0>         0.1089
     17 C12        -0.7679   -0.1088   -4.1168 C.3       1 <0>         0.0367
     18 O1         -1.2514    0.7739   -5.1313 O.3       1 <0>        -0.5603
     19 O2         -0.4797    1.6770   -2.5143 O.3       1 <0>        -0.5312
     20 O3         -1.3723   -1.8307   -1.8972 O.3       1 <0>        -0.5466
     21 C13         1.0284   -0.3220    2.9063 C.3       1 <0>        -0.1144
     22 C14         0.9497    0.4609    4.2208 C.3       1 <0>        -0.0957
     23 C15        -0.4420    0.2778    4.7966 C.2       1 <0>        -0.0234
     24 C16        -0.5678   -0.1133    6.0573 C.2       1 <0>        -0.2324
     25 C17        -1.8996   -0.3224    6.6460 C.2       1 <0>         0.4079
     26 O4         -2.0206   -0.6405    7.8143 O.2       1 <0>        -0.4621
     27 C18        -3.0833   -0.1384    5.7891 C.2       1 <0>        -0.2238
     28 C19        -2.9338    0.2599    4.5356 C.2       1 <0>        -0.0641
     29 C20        -1.5944    0.5561    3.9076 C.3       1 <0>        -0.0109
     30 C21        -1.5608    2.0486    3.5728 C.3       1 <0>        -0.1333
     31 O5         -2.6477    1.5715    1.5158 O.3       1 <0>        -0.5429
     32 H6         -0.1185    1.8081   -0.7407 H         1 <0>         0.0646
     33 H7         -1.8946    1.8947   -0.8196 H         1 <0>         0.0519
     34 H8         -1.0753    1.8442    0.7598 H         1 <0>         0.1013
     35 H9         -3.2635   -0.1690   -0.3735 H         1 <0>         0.0663
     36 H10        -2.4686   -1.5817    0.3747 H         1 <0>         0.0769
     37 H11         1.5420    0.6761   -0.1296 H         1 <0>         0.0738
     38 H12         2.0599   -1.0218    0.1314 H         1 <0>         0.0678
     39 H13         1.2558   -0.0518   -2.3500 H         1 <0>         0.0661
     40 H14         1.0666   -1.7609   -1.8644 H         1 <0>         0.0767
     41 H15         0.3172   -0.1840   -4.1876 H         1 <0>         0.0502
     42 H16        -1.2102   -1.0957   -4.2531 H         1 <0>         0.0519
     43 H17        -1.0431    0.4898   -6.0318 H         1 <0>         0.3808
     44 H18         0.4848    1.6107   -2.5355 H         1 <0>         0.3672
     45 H19        -1.1698   -2.2150   -2.7611 H         1 <0>         0.3717
     46 H20         0.9228   -1.3873    3.1115 H         1 <0>         0.0649
     47 H21         1.9922   -0.1381    2.4315 H         1 <0>         0.0736
     48 H22         1.6914    0.0782    4.9220 H         1 <0>         0.0789
     49 H23         1.1332    1.5184    4.0309 H         1 <0>         0.0861
     50 H24         0.3148   -0.2793    6.6571 H         1 <0>         0.1352
     51 H25        -4.0710   -0.3276    6.1828 H         1 <0>         0.1369
     52 H26        -3.8218    0.3782    3.9323 H         1 <0>         0.1262
     53 H27        -2.5377    2.3601    3.2029 H         1 <0>         0.0947
     54 H28        -1.3139    2.6167    4.4696 H         1 <0>         0.0428
     55 H29        -0.8070    2.2324    2.8072 H         1 <0>         0.0752
     56 H30        -3.3765    1.8893    0.9654 H         1 <0>         0.3688
@<TRIPOS>BOND
     1    1    2 1
     2    1   32 1
     3    1   33 1
     4    1   34 1
     5    2   10 1
     6    2   14 1
     7    2    3 1
     8    3    4 1
     9    3   35 1
    10    3   36 1
    11    4    5 1
    12    4    6 1
    13    4   31 1
    14    6    7 1
    15    6   29 1
    16    6    8 1
    17    8    9 1
    18    8   10 1
    19    8   21 1
    20   10   11 1
    21   10   12 1
    22   12   13 1
    23   12   37 1
    24   12   38 1
    25   13   14 1
    26   13   39 1
    27   13   40 1
    28   14   15 1
    29   14   20 1
    30   15   16 1
    31   15   17 1
    32   15   19 1
    33   17   18 1
    34   17   41 1
    35   17   42 1
    36   18   43 1
    37   19   44 1
    38   20   45 1
    39   21   22 1
    40   21   46 1
    41   21   47 1
    42   22   23 1
    43   22   48 1
    44   22   49 1
    45   23   29 1
    46   23   24 2
    47   24   25 1
    48   24   50 1
    49   25   26 2
    50   25   27 1
    51   27   28 2
    52   27   51 1
    53   28   29 1
    54   28   52 1
    55   29   30 1
    56   30   53 1
    57   30   54 1
    58   30   55 1
    59   31   56 1
