@<TRIPOS>MOLECULE
ZINC45420940
   38    37     0     0     0
SMALL
USER_CHARGES

@<TRIPOS>ATOM
      1 C1         -1.6089   -1.3555    0.3603 C.3       1 <0>        -0.1903
      2 C2         -0.4766   -0.3308    0.2664 C.3       1 <0>         0.0303
      3 H1         -0.8126    0.5300   -0.3117 H         1 <0>         0.1424
      4 C3          0.7318   -0.9678   -0.4227 C.3       1 <0>        -0.0763
      5 C4          0.4066   -1.2146   -1.8972 C.3       1 <0>        -0.1463
      6 C5          1.9340   -0.0275   -0.3161 C.3       1 <0>        -0.1859
      7 C6          1.0633   -2.2984    0.2560 C.3       1 <0>        -0.1946
      8 N1         -0.0969    0.1044    1.6171 N.4       1 <0>        -0.3727
      9 C7          0.6234    1.3821    1.5354 C.3       1 <0>        -0.1255
     10 C8          0.7712   -0.9086    2.2321 C.3       1 <0>        -0.0859
     11 C9          0.7502   -0.7428    3.7529 C.3       1 <0>         0.0543
     12 H2         -0.2503   -0.9581    4.1281 H         1 <0>         0.1277
     13 C10         1.7363   -1.6970    4.3759 C.2       1 <0>         0.5236
     14 O1          2.8279   -1.2993    4.7240 O.2       1 <0>        -0.5018
     15 N2          1.4053   -2.9923    4.5463 N.am      1 <0>        -0.8483
     16 N3          1.1171    0.6366    4.1003 N.3       1 <0>        -0.8250
     17 H3         -2.4698   -0.9017    0.8512 H         1 <0>         0.0846
     18 H4         -1.8906   -1.6785   -0.6419 H         1 <0>         0.1113
     19 H5         -1.2729   -2.2163    0.9384 H         1 <0>         0.0854
     20 H6          0.1705   -0.2667   -2.3808 H         1 <0>         0.0684
     21 H7          1.2675   -1.6684   -2.3882 H         1 <0>         0.0789
     22 H8         -0.4499   -1.8845   -1.9732 H         1 <0>         0.0713
     23 H9          2.3012   -0.0221    0.7102 H         1 <0>         0.0675
     24 H10         2.7246   -0.3714   -0.9830 H         1 <0>         0.0909
     25 H11         1.6328    0.9810   -0.5994 H         1 <0>         0.0809
     26 H12         0.1476   -2.7491    0.6386 H         1 <0>         0.0801
     27 H13         1.5243   -2.9705   -0.4677 H         1 <0>         0.0842
     28 H14         1.7541   -2.1233    1.0808 H         1 <0>         0.0758
     29 H15         1.5087    1.2609    0.9111 H         1 <0>         0.1585
     30 H16        -0.0280    2.1392    1.0989 H         1 <0>         0.1304
     31 H17         0.9241    1.6943    2.5355 H         1 <0>         0.1307
     32 H18         0.4108   -1.9033    1.9700 H         1 <0>         0.1635
     33 H19         1.7906   -0.7836    1.8670 H         1 <0>         0.1526
     34 H20         0.5322   -3.3104    4.2679 H         1 <0>         0.4025
     35 H21         2.0400   -3.6064    4.9472 H         1 <0>         0.4162
     36 H22         1.9495    0.9242    3.6079 H         1 <0>         0.3659
     37 H23         0.3530    1.2703    3.9198 H         1 <0>         0.3547
     38 H24        -0.9270    0.2217    2.1785 H         1 <0>         0.4196
@<TRIPOS>BOND
     1    1    2 1
     2    1   17 1
     3    1   18 1
     4    1   19 1
     5    2    3 1
     6    2    4 1
     7    2    8 1
     8    4    5 1
     9    4    6 1
    10    4    7 1
    11    5   20 1
    12    5   21 1
    13    5   22 1
    14    6   23 1
    15    6   24 1
    16    6   25 1
    17    7   26 1
    18    7   27 1
    19    7   28 1
    20    8    9 1
    21    8   10 1
    22    8   38 1
    23    9   29 1
    24    9   30 1
    25    9   31 1
    26   10   11 1
    27   10   32 1
    28   10   33 1
    29   11   12 1
    30   11   13 1
    31   11   16 1
    32   13   14 2
    33   13   15 am
    34   15   34 1
    35   15   35 1
    36   16   36 1
    37   16   37 1
