@<TRIPOS>MOLECULE
ZINC35679421
   42    43     0     0     0
SMALL
USER_CHARGES

@<TRIPOS>ATOM
      1 C1         -0.0187    1.5258    0.0104 C.3       1 <0>        -0.1439
      2 C2          0.0021   -0.0041    0.0020 C.3       1 <0>        -0.0591
      3 C3          0.7421   -0.5109    1.2415 C.3       1 <0>        -0.1474
      4 C4         -1.4117   -0.5257    0.0127 C.ar      1 <0>        -0.0573
      5 C5         -2.2589   -0.2036    1.0574 C.ar      1 <0>        -0.1177
      6 C6         -3.5567   -0.6804    1.0714 C.ar      1 <0>        -0.0924
      7 C7         -4.0114   -1.4801    0.0411 C.ar      1 <0>        -0.1556
      8 C8         -3.1634   -1.8051   -1.0098 C.ar      1 <0>         0.1356
      9 C9         -1.8616   -1.3200   -1.0233 C.ar      1 <0>        -0.1257
     10 N1         -3.6200   -2.6135   -2.0533 N.pl3     1 <0>        -1.0491
     11 S1         -5.1064   -2.3340   -2.7277 S.o2      1 <0>         2.7185
     12 O1         -5.2680   -3.2912   -3.7655 O.2       1 <0>        -0.9337
     13 O2         -6.0255   -2.2159   -1.6504 O.2       1 <0>        -0.9320
     14 C10        -5.0369   -0.7546   -3.5058 C.2       1 <0>        -0.7411
     15 C11        -4.6883   -0.4446   -4.7784 C.2       1 <0>        -0.0125
     16 C12        -4.7073    0.8794   -5.1750 C.2       1 <0>        -0.1571
     17 C13        -5.0739    1.8287   -4.2796 C.2       1 <0>        -0.1587
     18 S2         -5.4149    0.8518   -2.8247 S.3       1 <0>         0.2064
     19 C14        -5.1734    3.3208   -4.4655 C.3       1 <0>        -0.0626
     20 C15        -6.5822    3.6829   -4.9399 C.3       1 <0>        -0.0086
     21 N2         -6.6791    5.1374   -5.1212 N.4       1 <0>        -0.6365
     22 H1          1.0039    1.9031    0.0027 H         1 <0>         0.0614
     23 H2         -0.5459    1.8868   -0.8726 H         1 <0>         0.0519
     24 H3         -0.5289    1.8773    0.9072 H         1 <0>         0.0587
     25 H4          0.5123   -0.3556   -0.8948 H         1 <0>         0.0786
     26 H5          0.7568   -1.6008    1.2356 H         1 <0>         0.0583
     27 H6          1.7647   -0.1336    1.2338 H         1 <0>         0.0617
     28 H7          0.2319   -0.1594    2.1383 H         1 <0>         0.0591
     29 H8         -1.9059    0.4214    1.8643 H         1 <0>         0.1271
     30 H9         -4.2154   -0.4277    1.8891 H         1 <0>         0.1323
     31 H10        -5.0251   -1.8525    0.0528 H         1 <0>         0.1565
     32 H11        -1.2009   -1.5675   -1.8410 H         1 <0>         0.1277
     33 H12        -3.0664   -3.3386   -2.3830 H         1 <0>         0.4318
     34 H13        -4.3997   -1.2204   -5.4721 H         1 <0>         0.1561
     35 H14        -4.4337    1.1535   -6.1832 H         1 <0>         0.1482
     36 H15        -4.9698    3.8194   -3.5179 H         1 <0>         0.1081
     37 H16        -4.4452    3.6436   -5.2097 H         1 <0>         0.1145
     38 H17        -6.7858    3.1843   -5.8876 H         1 <0>         0.1413
     39 H18        -7.3103    3.3601   -4.1958 H         1 <0>         0.1394
     40 H19        -7.6082    5.3762   -5.4341 H         1 <0>         0.4431
     41 H20        -6.4907    5.5990   -4.2440 H         1 <0>         0.4374
     42 H21        -6.0051    5.4362   -5.8101 H         1 <0>         0.4373
@<TRIPOS>BOND
     1    1    2 1
     2    1   22 1
     3    1   23 1
     4    1   24 1
     5    2    3 1
     6    2    4 1
     7    2   25 1
     8    3   26 1
     9    3   27 1
    10    3   28 1
    11    4    9 ar
    12    4    5 ar
    13    5    6 ar
    14    5   29 1
    15    6    7 ar
    16    6   30 1
    17    7    8 ar
    18    7   31 1
    19    8    9 ar
    20    8   10 1
    21    9   32 1
    22   10   11 1
    23   10   33 1
    24   11   12 2
    25   11   13 2
    26   11   14 1
    27   14   18 1
    28   14   15 2
    29   15   16 1
    30   15   34 1
    31   16   17 2
    32   16   35 1
    33   17   18 1
    34   17   19 1
    35   19   20 1
    36   19   36 1
    37   19   37 1
    38   20   21 1
    39   20   38 1
    40   20   39 1
    41   21   40 1
    42   21   41 1
    43   21   42 1
