@<TRIPOS>MOLECULE
ZINC63108857
   40    43     0     0     0
SMALL
USER_CHARGES

@<TRIPOS>ATOM
      1 C1         -0.0163    1.3482    0.0095 C.ar      1 <0>        -0.1508
      2 C2          1.1658    2.1014    0.0022 C.ar      1 <0>         0.0531
      3 C3          2.3912    1.5352   -0.0125 C.ar      1 <0>        -0.2088
      4 C4          2.5288    0.1198   -0.0218 C.ar      1 <0>         0.3299
      5 N1          3.5868   -0.6543   -0.0369 N.pl3     1 <0>        -0.5820
      6 C5          3.1432   -2.0528   -0.0408 C.3       1 <0>         0.0636
      7 C6          1.6315   -2.0084   -0.0255 C.2       1 <0>         0.0866
      8 C7          1.2951   -0.6984   -0.0144 C.ar      1 <0>        -0.1615
      9 C8          0.0021   -0.0041    0.0020 C.ar      1 <0>        -0.0115
     10 C9          0.6905   -3.1856   -0.0239 C.3       1 <0>        -0.1165
     11 C10         0.4600   -3.6463   -1.4401 C.2       1 <0>         0.5228
     12 O1          1.0061   -3.0751   -2.3601 O.2       1 <0>        -0.5330
     13 N2         -0.3529   -4.6932   -1.6843 N.am      1 <0>        -0.7122
     14 C11        -0.5770   -5.1412   -3.0610 C.3       1 <0>         0.2063
     15 C12        -1.5180   -6.3183   -3.0594 C.2       1 <0>        -0.0406
     16 C13        -2.8495   -6.2673   -3.2404 C.2       1 <0>        -0.0339
     17 O2         -3.3139   -7.5318   -3.1666 O.3       1 <0>        -0.1842
     18 C14        -2.2626   -8.3406   -2.9416 C.2       1 <0>         0.2954
     19 N3         -1.1748   -7.6037   -2.8828 N.2       1 <0>        -0.4597
     20 C15        -2.3194   -9.8022   -2.7929 C.2       1 <0>        -0.1339
     21 C16        -3.4156  -10.6427   -2.8540 C.2       1 <0>        -0.0968
     22 C17        -3.2155  -11.9926   -2.6824 C.2       1 <0>        -0.1677
     23 C18        -1.9575  -12.4553   -2.4600 C.2       1 <0>        -0.1552
     24 S1         -0.9897  -10.9557   -2.4944 S.3       1 <0>         0.1523
     25 H1         -0.9665    1.8612    0.0259 H         1 <0>         0.1576
     26 H2          1.0933    3.1789    0.0083 H         1 <0>         0.1609
     27 H3          3.2717    2.1606   -0.0175 H         1 <0>         0.1608
     28 H4          3.4952   -2.5561   -0.9413 H         1 <0>         0.1775
     29 H5          3.5129   -2.5667    0.8465 H         1 <0>         0.1741
     30 H6         -0.9210   -0.5647    0.0081 H         1 <0>         0.1584
     31 H7          1.1268   -3.9987    0.5563 H         1 <0>         0.1418
     32 H8         -0.2596   -2.8905    0.4214 H         1 <0>         0.1385
     33 H9         -0.7897   -5.1501   -0.9484 H         1 <0>         0.4098
     34 H10        -1.0133   -4.3280   -3.6412 H         1 <0>         0.0955
     35 H11         0.3731   -5.4362   -3.5063 H         1 <0>         0.0949
     36 H12        -3.4383   -5.3785   -3.4126 H         1 <0>         0.2244
     37 H13        -4.4053  -10.2486   -3.0317 H         1 <0>         0.1438
     38 H14        -4.0495  -12.6775   -2.7236 H         1 <0>         0.1468
     39 H15        -1.6268  -13.4718   -2.3061 H         1 <0>         0.1976
     40 H16         4.5087   -0.3528   -0.0446 H         1 <0>         0.4559
@<TRIPOS>BOND
     1    1    9 ar
     2    1    2 ar
     3    1   25 1
     4    2    3 ar
     5    2   26 1
     6    3    4 ar
     7    3   27 1
     8    4    8 ar
     9    4    5 2
    10    5    6 1
    11    5   40 1
    12    6    7 1
    13    6   28 1
    14    6   29 1
    15    7    8 2
    16    7   10 1
    17    8    9 ar
    18    9   30 1
    19   10   11 1
    20   10   31 1
    21   10   32 1
    22   11   12 2
    23   11   13 am
    24   13   14 1
    25   13   33 1
    26   14   15 1
    27   14   34 1
    28   14   35 1
    29   15   19 1
    30   15   16 2
    31   16   17 1
    32   16   36 1
    33   17   18 1
    34   18   19 2
    35   18   20 1
    36   20   24 1
    37   20   21 2
    38   21   22 1
    39   21   37 1
    40   22   23 2
    41   22   38 1
    42   23   24 1
    43   23   39 1
