@<TRIPOS>MOLECULE
ZINC51147276
   38    39     0     0     0
SMALL
USER_CHARGES

@<TRIPOS>ATOM
      1 C1          0.1874    0.9051    0.1134 C.3       1 <0>        -0.1886
      2 C2          0.2464   -0.6213    0.0265 C.3       1 <0>        -0.0095
      3 N1         -1.1180   -1.1655    0.0392 N.4       1 <0>        -0.3841
      4 C3         -1.7495   -0.8740    1.3331 C.3       1 <0>        -0.0497
      5 C4         -1.0672   -2.6195   -0.1644 C.3       1 <0>         0.0818
      6 C5         -2.4693   -3.1607   -0.2742 C.ar      1 <0>         0.3108
      7 N2         -3.0997   -3.5484    0.8203 N.ar      1 <0>        -0.5677
      8 C6         -4.3309   -4.0320    0.7903 C.ar      1 <0>         0.5005
      9 C7         -5.0031   -4.1404   -0.4584 C.ar      1 <0>        -0.2010
     10 C8         -6.3376   -4.6307   -0.7555 C.2       1 <0>        -0.1060
     11 C9         -6.7643   -4.6387   -2.0269 C.2       1 <0>        -0.1172
     12 S1         -5.3802   -3.9764   -2.9349 S.3       1 <0>         0.1512
     13 C10        -4.2661   -3.7068   -1.5821 C.ar      1 <0>         0.1266
     14 N3         -3.0421   -3.2319   -1.4599 N.ar      1 <0>        -0.4932
     15 C11        -8.0965   -5.0981   -2.5610 C.3       1 <0>        -0.0812
     16 C12        -7.2322   -5.1251    0.3520 C.3       1 <0>        -0.1196
     17 N4         -4.9563   -4.4276    1.9589 N.pl3     1 <0>        -0.5480
     18 N5         -4.2103   -4.7658    3.0521 N.3       1 <0>        -0.5963
     19 H1          1.1998    1.3089    0.1041 H         1 <0>         0.1083
     20 H2         -0.3677    1.2964   -0.7391 H         1 <0>         0.0804
     21 H3         -0.3118    1.1974    1.0372 H         1 <0>         0.0803
     22 H4          0.7456   -0.9136   -0.8973 H         1 <0>         0.1342
     23 H5          0.8016   -1.0126    0.8791 H         1 <0>         0.1331
     24 H6         -2.7619   -1.2779    1.3425 H         1 <0>         0.1169
     25 H7         -1.1679   -1.3328    2.1328 H         1 <0>         0.1281
     26 H8         -1.7872    0.2048    1.4842 H         1 <0>         0.1243
     27 H9         -0.5201   -2.8391   -1.0813 H         1 <0>         0.1564
     28 H10        -0.5623   -3.0872    0.6808 H         1 <0>         0.1561
     29 H11        -8.7931   -4.2598   -2.5697 H         1 <0>         0.0911
     30 H12        -7.9704   -5.4763   -3.5754 H         1 <0>         0.0847
     31 H13        -8.4896   -5.8905   -1.9240 H         1 <0>         0.0916
     32 H14        -7.7373   -4.2782    0.8164 H         1 <0>         0.0778
     33 H15        -7.9740   -5.8101   -0.0586 H         1 <0>         0.0883
     34 H16        -6.6322   -5.6445    1.0992 H         1 <0>         0.0724
     35 H17        -5.9246   -4.4648    2.0021 H         1 <0>         0.4229
     36 H18        -3.5901   -4.0140    3.3133 H         1 <0>         0.3491
     37 H19        -4.8017   -5.0318    3.8252 H         1 <0>         0.3682
     38 H20        -1.6564   -0.7409   -0.7011 H         1 <0>         0.4269
@<TRIPOS>BOND
     1    1    2 1
     2    1   19 1
     3    1   20 1
     4    1   21 1
     5    2    3 1
     6    2   22 1
     7    2   23 1
     8    3    4 1
     9    3    5 1
    10    3   38 1
    11    4   24 1
    12    4   25 1
    13    4   26 1
    14    5    6 1
    15    5   27 1
    16    5   28 1
    17    6   14 ar
    18    6    7 ar
    19    7    8 ar
    20    8    9 ar
    21    8   17 1
    22    9   13 ar
    23    9   10 1
    24   10   11 2
    25   10   16 1
    26   11   12 1
    27   11   15 1
    28   12   13 1
    29   13   14 ar
    30   15   29 1
    31   15   30 1
    32   15   31 1
    33   16   32 1
    34   16   33 1
    35   16   34 1
    36   17   18 1
    37   17   35 1
    38   18   36 1
    39   18   37 1
