@<TRIPOS>MOLECULE
ZINC43262203
   39    39     0     0     0
SMALL
USER_CHARGES

@<TRIPOS>ATOM
      1 C1         -1.2336    1.0677    0.2992 C.3       1 <0>        -0.1681
      2 C2         -1.0583   -0.4513    0.3519 C.3       1 <0>         0.1140
      3 N1         -0.0180   -0.7893    1.3266 N.am      1 <0>        -0.7307
      4 C3          0.3093   -2.0786    1.5430 C.2       1 <0>         0.5084
      5 O1         -0.2572   -2.9591    0.9309 O.2       1 <0>        -0.5106
      6 C4          1.3794   -2.4263    2.5456 C.3       1 <0>         0.0235
      7 N2          1.5478   -3.8847    2.5962 N.3       1 <0>        -0.5063
      8 C5          2.2878   -4.3702    1.4238 C.3       1 <0>         0.0165
      9 C6          2.2079   -4.2955    3.8426 C.3       1 <0>         0.1564
     10 H1          3.1625   -3.7778    3.9359 H         1 <0>         0.0912
     11 C7          2.4437   -5.7838    3.8192 C.2       1 <0>        -0.2192
     12 C8          3.5193   -6.4842    4.2541 C.2       1 <0>        -0.1298
     13 C9          3.5175   -7.8612    4.1307 C.2       1 <0>        -0.1309
     14 C10         2.4389   -8.4700    3.5780 C.2       1 <0>        -0.1650
     15 S1          1.3754   -7.0818    3.2186 S.3       1 <0>         0.1889
     16 Br1         2.1368  -10.3118    3.2738 Br        1 <0>         0.0640
     17 C11         1.3159   -3.9392    5.0335 C.3       1 <0>         0.0289
     18 H2          1.2236   -2.8556    5.1069 H         1 <0>         0.1505
     19 C12        -0.0698   -4.5568    4.8357 C.3       1 <0>        -0.1835
     20 N3          1.9144   -4.4643    6.2680 N.4       1 <0>        -0.6340
     21 H3         -0.2931    1.5319    0.0026 H         1 <0>         0.0632
     22 H4         -2.0076    1.3191   -0.4259 H         1 <0>         0.0793
     23 H5         -1.5251    1.4341    1.2835 H         1 <0>         0.0625
     24 H6         -1.9988   -0.9156    0.6486 H         1 <0>         0.0708
     25 H7         -0.7668   -0.8178   -0.6324 H         1 <0>         0.0706
     26 H8          0.4351   -0.0851    1.8162 H         1 <0>         0.4003
     27 H9          2.3199   -1.9620    2.2489 H         1 <0>         0.0813
     28 H10         1.0879   -2.0598    3.5299 H         1 <0>         0.1022
     29 H11         3.2734   -3.9053    1.3981 H         1 <0>         0.0374
     30 H12         2.3983   -5.4528    1.4865 H         1 <0>         0.0801
     31 H13         1.7409   -4.1128    0.5167 H         1 <0>         0.0950
     32 H14         4.3655   -5.9742    4.6902 H         1 <0>         0.1445
     33 H15         4.3621   -8.4431    4.4690 H         1 <0>         0.1505
     34 H16         0.0225   -5.6404    4.7623 H         1 <0>         0.0834
     35 H17        -0.7052   -4.3029    5.6842 H         1 <0>         0.0839
     36 H18        -0.5139   -4.1671    3.9197 H         1 <0>         0.1224
     37 H19         2.8622   -4.1284    6.3516 H         1 <0>         0.4341
     38 H20         1.3757   -4.1524    7.0621 H         1 <0>         0.4410
     39 H21         1.9165   -5.4729    6.2382 H         1 <0>         0.4334
@<TRIPOS>BOND
     1    1    2 1
     2    1   21 1
     3    1   22 1
     4    1   23 1
     5    2    3 1
     6    2   24 1
     7    2   25 1
     8    3    4 am
     9    3   26 1
    10    4    5 2
    11    4    6 1
    12    6    7 1
    13    6   27 1
    14    6   28 1
    15    7    8 1
    16    7    9 1
    17    8   29 1
    18    8   30 1
    19    8   31 1
    20    9   10 1
    21    9   11 1
    22    9   17 1
    23   11   15 1
    24   11   12 2
    25   12   13 1
    26   12   32 1
    27   13   14 2
    28   13   33 1
    29   14   15 1
    30   14   16 1
    31   17   18 1
    32   17   19 1
    33   17   20 1
    34   19   34 1
    35   19   35 1
    36   19   36 1
    37   20   37 1
    38   20   38 1
    39   20   39 1
