@<TRIPOS>MOLECULE
ZINC50985992
   25    25     0     0     0
SMALL
NO_CHARGES

@<TRIPOS>ATOM
      1 C1         -0.0187    1.5258    0.0104 C.3       1 <0>        -0.1500
      2 C2          0.0021   -0.0041    0.0020 C.3       1 <0>        -0.1476
      3 C3         -1.4333   -0.5336    0.0129 C.3       1 <0>         0.2469
      4 C4         -1.4413   -2.0490    0.0791 C.cat     1 <0>        -0.0455
      5 N1         -2.0716   -2.4423   -1.0819 N.pl3     1 <0>        -0.3513
      6 C5         -2.4313   -1.3469   -1.8150 C.cat     1 <0>         0.0077
      7 N2         -2.1055   -0.2299   -1.2600 N.pl3     1 <0>        -0.6778
      8 C6         -3.1411   -1.4351   -3.1415 C.3       1 <0>        -0.0522
      9 C7         -2.3197   -3.8322   -1.4728 C.3       1 <0>         0.0708
     10 N3         -0.9640   -2.8024    1.0143 N.pl3     1 <0>        -0.8253
     11 H1          1.0039    1.9031    0.0027 H         1 <0>         0.0505
     12 H2         -0.5459    1.8868   -0.8726 H         1 <0>         0.0494
     13 H3         -0.5289    1.8773    0.9072 H         1 <0>         0.0520
     14 H4          0.5123   -0.3556   -0.8948 H         1 <0>         0.0597
     15 H5          0.5293   -0.3651    0.8851 H         1 <0>         0.0614
     16 H6         -4.2188   -1.4305   -2.9779 H         1 <0>         0.0522
     17 H7         -2.8638   -0.5811   -3.7594 H         1 <0>         0.0642
     18 H8         -2.8542   -2.3574   -3.6465 H         1 <0>         0.0565
     19 H9         -3.2878   -4.1511   -1.0863 H         1 <0>         0.0741
     20 H10        -2.3192   -3.9095   -2.5601 H         1 <0>         0.0846
     21 H11        -1.5368   -4.4702   -1.0628 H         1 <0>         0.0784
     22 H12        -0.5392   -2.4030    1.7895 H         1 <0>         0.4032
     23 H13        -1.9896   -0.1112    0.8497 H         1 <0>         0.0349
     24 H14        -2.2733    0.6561   -1.6175 H         1 <0>         0.4194
     25 H15        -1.0306   -3.7674    0.9411 H         1 <0>         0.3835
@<TRIPOS>BOND
     1    1    2 1
     2    1   11 1
     3    1   12 1
     4    1   13 1
     5    2   14 1
     6    2   15 1
     7    2    3 1
     8    3   23 1
     9    3    7 1
    10    3    4 1
    11    4    5 1
    12    4   10 2
    13    5    6 1
    14    5    9 1
    15    6    7 2
    16    6    8 1
    17    7   24 1
    18    8   16 1
    19    8   17 1
    20    8   18 1
    21    9   19 1
    22    9   20 1
    23    9   21 1
    24   10   22 1
    25   10   25 1
