@<TRIPOS>MOLECULE
ZINC13610998
   51    55     0     0     0
SMALL
USER_CHARGES

@<TRIPOS>ATOM
      1 C1         -0.0156    1.5028    0.0120 C.3       1 <0>        -0.1180
      2 C2          0.0041   -0.0040    0.0032 C.ar      1 <0>        -0.0761
      3 C3         -1.0451   -0.7112    0.5616 C.ar      1 <0>        -0.1069
      4 C4         -1.0298   -2.0921    0.5551 C.ar      1 <0>        -0.0952
      5 C5          0.0401   -2.7705   -0.0132 C.ar      1 <0>         0.1081
      6 C6          1.0914   -2.0580   -0.5733 C.ar      1 <0>        -0.0972
      7 C7          1.0683   -0.6768   -0.5681 C.ar      1 <0>        -0.0795
      8 C8          2.2068    0.0975   -1.1806 C.3       1 <0>        -0.1152
      9 N1          0.0586   -4.1723   -0.0209 N.am      1 <0>        -0.5223
     10 C9          0.1666   -4.9016    1.0966 C.2       1 <0>         0.5335
     11 O1          0.2586   -4.4555    2.2200 O.2       1 <0>        -0.4696
     12 C10         0.1551   -6.3709    0.7352 C.3       1 <0>        -0.1484
     13 C11         0.0203   -6.3642   -0.8012 C.3       1 <0>        -0.0214
     14 H1          0.8862   -6.8374   -1.2643 H         1 <0>         0.1403
     15 C12        -0.0359   -4.8919   -1.1459 C.2       1 <0>         0.5369
     16 O2         -0.1462   -4.4362   -2.2638 O.2       1 <0>        -0.4647
     17 C13        -1.2499   -7.0556   -1.2252 C.2       1 <0>        -0.3105
     18 C14        -1.3325   -8.1456   -2.0155 C.2       1 <0>         0.2414
     19 N2         -2.6504   -8.4695   -2.1683 N.pl3     1 <0>        -0.4827
     20 N3         -3.4145   -7.5444   -1.4446 N.am      1 <0>        -0.3215
     21 C15        -2.5622   -6.6784   -0.8590 C.2       1 <0>         0.5581
     22 O3         -2.8681   -5.7394   -0.1466 O.2       1 <0>        -0.4705
     23 C16        -4.7915   -7.5262   -1.3440 C.2       1 <0>         0.4775
     24 N4         -5.4815   -6.6465   -0.6658 N.2       1 <0>        -0.4492
     25 C17        -6.8049   -6.9379   -0.7925 C.ar      1 <0>         0.0425
     26 C18        -7.9721   -6.3544   -0.2973 C.ar      1 <0>        -0.0597
     27 C19        -9.1964   -6.9009   -0.6137 C.ar      1 <0>        -0.1103
     28 C20        -9.2751   -8.0262   -1.4199 C.ar      1 <0>        -0.0924
     29 C21        -8.1289   -8.6131   -1.9162 C.ar      1 <0>        -0.0857
     30 C22        -6.8892   -8.0762   -1.6083 C.ar      1 <0>         0.0079
     31 O4         -5.6186   -8.4070   -1.9338 O.3       1 <0>        -0.2259
     32 C23        -0.1677   -8.8811   -2.6267 C.3       1 <0>        -0.1107
     33 H2         -0.5070    1.8650   -0.8911 H         1 <0>         0.0734
     34 H3         -0.5608    1.8540    0.8881 H         1 <0>         0.0689
     35 H4          1.0067    1.8794    0.0452 H         1 <0>         0.0711
     36 H5         -1.8770   -0.1830    1.0036 H         1 <0>         0.1309
     37 H6         -1.8491   -2.6438    0.9920 H         1 <0>         0.1284
     38 H7          1.9251   -2.5830   -1.0157 H         1 <0>         0.1251
     39 H8          2.9678    0.2849   -0.4231 H         1 <0>         0.0730
     40 H9          2.6412   -0.4797   -1.9968 H         1 <0>         0.0675
     41 H10         1.8351    1.0473   -1.5649 H         1 <0>         0.0720
     42 H11         1.0880   -6.8474    1.0364 H         1 <0>         0.1287
     43 H12        -0.6979   -6.8719    1.1929 H         1 <0>         0.1235
     44 H13        -2.9975   -9.2114   -2.6880 H         1 <0>         0.4537
     45 H14        -7.9157   -5.4783    0.3316 H         1 <0>         0.1416
     46 H15       -10.1003   -6.4503   -0.2312 H         1 <0>         0.1426
     47 H16       -10.2403   -8.4466   -1.6610 H         1 <0>         0.1453
     48 H17        -8.1980   -9.4897   -2.5433 H         1 <0>         0.1381
     49 H18         0.1660   -9.6635   -1.9450 H         1 <0>         0.1060
     50 H19        -0.4763   -9.3293   -3.5711 H         1 <0>         0.0901
     51 H20         0.6495   -8.1824   -2.8059 H         1 <0>         0.1072
@<TRIPOS>BOND
     1    1    2 1
     2    1   33 1
     3    1   34 1
     4    1   35 1
     5    2    7 ar
     6    2    3 ar
     7    3    4 ar
     8    3   36 1
     9    4    5 ar
    10    4   37 1
    11    5    6 ar
    12    5    9 1
    13    6    7 ar
    14    6   38 1
    15    7    8 1
    16    8   39 1
    17    8   40 1
    18    8   41 1
    19    9   15 am
    20    9   10 am
    21   10   11 2
    22   10   12 1
    23   12   13 1
    24   12   42 1
    25   12   43 1
    26   13   14 1
    27   13   15 1
    28   13   17 1
    29   15   16 2
    30   17   18 2
    31   17   21 1
    32   18   19 1
    33   18   32 1
    34   19   20 1
    35   19   44 1
    36   20   21 am
    37   20   23 1
    38   21   22 2
    39   23   31 1
    40   23   24 2
    41   24   25 1
    42   25   30 ar
    43   25   26 ar
    44   26   27 ar
    45   26   45 1
    46   27   28 ar
    47   27   46 1
    48   28   29 ar
    49   28   47 1
    50   29   30 ar
    51   29   48 1
    52   30   31 1
    53   32   49 1
    54   32   50 1
    55   32   51 1
