@<TRIPOS>MOLECULE
ZINC01813011
   51    54     0     0     0
SMALL
USER_CHARGES

@<TRIPOS>ATOM
      1 C1         -0.0752    1.2780   -0.3491 C.ar      1 <0>        -0.0993
      2 C2          1.1043    2.0009   -0.3243 C.ar      1 <0>        -0.1174
      3 C3          2.3182    1.3457   -0.3076 C.ar      1 <0>        -0.0710
      4 C4          2.3549   -0.0497   -0.3159 C.ar      1 <0>        -0.0270
      5 C5          1.1612   -0.7729   -0.3410 C.ar      1 <0>        -0.1048
      6 C6         -0.0459   -0.1053   -0.3575 C.ar      1 <0>        -0.1159
      7 C7          3.6519   -0.7583   -0.2986 C.2       1 <0>         0.2432
      8 N1          4.8307   -0.2346   -0.5432 N.2       1 <0>        -0.2611
      9 N2          5.7418   -1.1350   -0.4413 N.2       1 <0>        -0.2845
     10 C8          5.2021   -2.2912   -0.1251 C.2       1 <0>         0.1522
     11 N3          3.8530   -2.0919   -0.0170 N.pl3     1 <0>        -0.4158
     12 C9          2.8786   -3.0457    0.3096 C.ar      1 <0>         0.1164
     13 C10         2.1486   -2.9200    1.4837 C.ar      1 <0>        -0.0894
     14 C11         1.1893   -3.8610    1.8031 C.ar      1 <0>        -0.0758
     15 C12         0.9557   -4.9282    0.9540 C.ar      1 <0>        -0.0752
     16 C13         1.6823   -5.0559   -0.2165 C.ar      1 <0>        -0.0733
     17 C14         2.6383   -4.1143   -0.5435 C.ar      1 <0>        -0.0935
     18 Br1        -0.3584   -6.2147    1.3945 Br        1 <0>        -0.0282
     19 S1          6.0574   -3.8119    0.1206 S.3       1 <0>         0.0984
     20 C15         7.7981   -3.3872   -0.1626 C.3       1 <0>        -0.1484
     21 C16         8.6509   -4.6164    0.0184 C.2       1 <0>         0.5568
     22 O1          8.1352   -5.6749    0.3099 O.2       1 <0>        -0.4821
     23 N4          9.9867   -4.5395   -0.1435 N.am      1 <0>        -0.5721
     24 N5         10.7796   -5.6822    0.0248 N.2       1 <0>        -0.2072
     25 C17        12.0657   -5.6083   -0.1311 C.2       1 <0>         0.0683
     26 C18        12.9004   -6.8113    0.0461 C.ar      1 <0>         0.0168
     27 C19        12.3278   -8.0021    0.4997 C.ar      1 <0>        -0.0834
     28 C20        13.1144   -9.1231    0.6632 C.ar      1 <0>        -0.0677
     29 C21        14.4679   -9.0701    0.3794 C.ar      1 <0>        -0.1045
     30 C22        15.0417   -7.8941   -0.0697 C.ar      1 <0>        -0.0538
     31 C23        14.2658   -6.7668   -0.2442 C.ar      1 <0>        -0.0305
     32 N6         14.8801   -5.5113   -0.7316 N.pl3     1 <0>         0.0393
     33 O2         16.0361   -5.5017   -1.0855 O.2       1 <0>        -0.1380
     34 O3         14.2259   -4.4956   -0.7758 O.3       1 <0>        -0.1732
     35 H1         -1.0229    1.7957   -0.3576 H         1 <0>         0.1295
     36 H2          1.0745    3.0804   -0.3182 H         1 <0>         0.1333
     37 H3          3.2382    1.9112   -0.2885 H         1 <0>         0.1377
     38 H4          1.1827   -1.8527   -0.3479 H         1 <0>         0.1255
     39 H5         -0.9702   -0.6637   -0.3769 H         1 <0>         0.1298
     40 H6          2.3308   -2.0874    2.1469 H         1 <0>         0.1422
     41 H7          0.6214   -3.7639    2.7165 H         1 <0>         0.1491
     42 H8          1.4986   -5.8902   -0.8772 H         1 <0>         0.1497
     43 H9          3.2016   -4.2117   -1.4598 H         1 <0>         0.1445
     44 H10         7.9189   -3.0073   -1.1771 H         1 <0>         0.1350
     45 H11         8.1063   -2.6228    0.5507 H         1 <0>         0.1349
     46 H12        10.3992   -3.6931   -0.3766 H         1 <0>         0.3971
     47 H13        12.5248   -4.6658   -0.3906 H         1 <0>         0.1729
     48 H14        11.2718   -8.0447    0.7222 H         1 <0>         0.1585
     49 H15        12.6732  -10.0444    1.0137 H         1 <0>         0.1497
     50 H16        15.0792   -9.9509    0.5095 H         1 <0>         0.1525
     51 H17        16.0987   -7.8596   -0.2886 H         1 <0>         0.1599
@<TRIPOS>BOND
     1    1    6 ar
     2    1    2 ar
     3    1   35 1
     4    2    3 ar
     5    2   36 1
     6    3    4 ar
     7    3   37 1
     8    4    5 ar
     9    4    7 1
    10    5    6 ar
    11    5   38 1
    12    6   39 1
    13    7   11 1
    14    7    8 2
    15    8    9 1
    16    9   10 2
    17   10   11 1
    18   10   19 1
    19   11   12 1
    20   12   17 ar
    21   12   13 ar
    22   13   14 ar
    23   13   40 1
    24   14   15 ar
    25   14   41 1
    26   15   16 ar
    27   15   18 1
    28   16   17 ar
    29   16   42 1
    30   17   43 1
    31   19   20 1
    32   20   21 1
    33   20   44 1
    34   20   45 1
    35   21   22 2
    36   21   23 am
    37   23   24 1
    38   23   46 1
    39   24   25 2
    40   25   26 1
    41   25   47 1
    42   26   31 ar
    43   26   27 ar
    44   27   28 ar
    45   27   48 1
    46   28   29 ar
    47   28   49 1
    48   29   30 ar
    49   29   50 1
    50   30   31 ar
    51   30   51 1
    52   31   32 1
    53   32   33 2
    54   32   34 1
