@<TRIPOS>MOLECULE
ZINC13371239
   47    49     0     0     0
SMALL
USER_CHARGES
(3S,4R)-N-cycloheptyl-1,1-dioxo-4-(2-thienylsulfonyl)thiolan-3-amine
@<TRIPOS>ATOM
      1 C1          1.1503    1.5748   -0.3541 C.2       1 <0>        -0.2005
      2 C2         -0.0417    0.8805   -0.2660 C.2       1 <0>         0.0155
      3 C3         -1.2068    1.5732   -0.2582 C.2       1 <0>        -0.7848
      4 S1         -0.6339    3.2606   -0.3664 S.3       1 <0>         0.1860
      5 C4          1.1192    2.9281   -0.4243 C.2       1 <0>        -0.1008
      6 S2         -2.8581    0.9659   -0.1639 S.o2      1 <0>         2.5329
      7 O1         -3.6488    1.9666   -0.7906 O.2       1 <0>        -0.8808
      8 O2         -2.7926   -0.3478   -0.7017 O.2       1 <0>        -0.9095
      9 C5         -3.2288    0.8968    1.6104 C.3       1 <0>        -0.6348
     10 H1         -2.5093    0.2339    2.0910 H         1 <0>         0.1870
     11 C6         -3.0705    2.3105    2.2034 C.3       1 <0>        -0.5636
     12 S3         -4.6891    2.6042    3.0304 S.o2      1 <0>         2.3955
     13 O3         -4.4603    3.0770    4.3508 O.2       1 <0>        -0.8856
     14 O4         -5.5339    3.3398    2.1561 O.2       1 <0>        -0.8799
     15 C7         -5.2693    0.8525    3.1045 C.3       1 <0>        -0.6078
     16 C8         -4.6298    0.3156    1.7957 C.3       1 <0>         0.0389
     17 H2         -5.2524    0.5976    0.9466 H         1 <0>         0.1669
     18 C9         -5.8194   -1.7713    1.4919 C.3       1 <0>         0.0314
     19 C10        -5.9586   -3.1145    2.2372 C.3       1 <0>        -0.1345
     20 C11        -7.4144   -3.4939    2.2708 C.3       1 <0>        -0.1212
     21 C12        -7.8079   -4.4254    1.1084 C.3       1 <0>        -0.1262
     22 C13        -7.1711   -4.0102   -0.2317 C.3       1 <0>        -0.1306
     23 C14        -7.1969   -2.5209   -0.4444 C.3       1 <0>        -0.1061
     24 C15        -5.8580   -1.9326    0.0460 C.3       1 <0>        -0.1696
     25 H3          2.0924    1.0468   -0.3670 H         1 <0>         0.1552
     26 H4         -0.0449   -0.1980   -0.2088 H         1 <0>         0.1512
     27 H5          1.9415    3.6245   -0.4968 H         1 <0>         0.2063
     28 H6         -2.2577    2.3344    2.9293 H         1 <0>         0.1825
     29 H7         -2.9037    3.0427    1.4133 H         1 <0>         0.1574
     30 H8         -4.8745    0.3399    3.9817 H         1 <0>         0.1724
     31 H9         -6.3570    0.7924    3.0684 H         1 <0>         0.1779
     32 H10        -6.6345   -1.1145    1.7957 H         1 <0>         0.1443
     33 H11        -5.3917   -3.8842    1.7136 H         1 <0>         0.1006
     34 H12        -5.5842   -3.0088    3.2554 H         1 <0>         0.0899
     35 H13        -8.0165   -2.5871    2.2154 H         1 <0>         0.0714
     36 H14        -7.6240   -3.9989    3.2138 H         1 <0>         0.0833
     37 H15        -8.8925   -4.4141    1.0006 H         1 <0>         0.0722
     38 H16        -7.4913   -5.4403    1.3486 H         1 <0>         0.0696
     39 H17        -7.7143   -4.4921   -1.0445 H         1 <0>         0.0754
     40 H18        -6.1360   -4.3514   -0.2509 H         1 <0>         0.0654
     41 H19        -8.0185   -2.0841    0.1232 H         1 <0>         0.0794
     42 H20        -7.3268   -2.3017   -1.5043 H         1 <0>         0.0891
     43 H21        -5.7075   -0.9597   -0.4219 H         1 <0>         0.0812
     44 H22        -5.0497   -2.5982   -0.2567 H         1 <0>         0.1000
     45 N1         -4.5339   -1.1545    1.8701 N.4       1 <0>        -0.5182
     46 H23        -4.2954   -1.4302    2.8299 H         1 <0>         0.4403
     47 H24        -3.8009   -1.4790    1.2286 H         1 <0>         0.4356
@<TRIPOS>BOND
     1    1    5 2
     2    1    2 1
     3    1   25 1
     4    2    3 2
     5    2   26 1
     6    3    4 1
     7    3    6 1
     8    4    5 1
     9    5   27 1
    10    6    7 2
    11    6    8 2
    12    6    9 1
    13    9   10 1
    14    9   16 1
    15    9   11 1
    16   11   12 1
    17   11   28 1
    18   11   29 1
    19   12   13 2
    20   12   14 2
    21   12   15 1
    22   15   16 1
    23   15   30 1
    24   15   31 1
    25   16   17 1
    26   16   45 1
    27   18   24 1
    28   18   19 1
    29   18   32 1
    30   18   45 1
    31   19   20 1
    32   19   33 1
    33   19   34 1
    34   20   21 1
    35   20   35 1
    36   20   36 1
    37   21   22 1
    38   21   37 1
    39   21   38 1
    40   22   23 1
    41   22   39 1
    42   22   40 1
    43   23   24 1
    44   23   41 1
    45   23   42 1
    46   24   43 1
    47   24   44 1
    48   45   46 1
    49   45   47 1
