@<TRIPOS>MOLECULE
ZINC59920362
   51    54     0     0     0
SMALL
USER_CHARGES

@<TRIPOS>ATOM
      1 C1          0.0865    1.2693   -0.6159 C.ar      1 <0>        -0.1251
      2 C2          1.2065    1.9583   -1.0440 C.ar      1 <0>        -0.0950
      3 C3          2.4390    1.3329   -1.0715 C.ar      1 <0>        -0.1720
      4 C4          2.5550    0.0118   -0.6694 C.ar      1 <0>         0.0938
      5 C5          1.4269   -0.6829   -0.2375 C.ar      1 <0>         0.1242
      6 C6          0.1934   -0.0481   -0.2128 C.ar      1 <0>        -0.1031
      7 N1          1.5377   -2.0178    0.1695 N.am      1 <0>        -0.6393
      8 C7          0.4440   -2.8046    0.2046 C.2       1 <0>         0.5787
      9 O1         -0.6224   -2.3825   -0.2019 O.2       1 <0>        -0.4963
     10 C8          0.5392   -4.1697    0.7329 C.2       1 <0>         0.0872
     11 N2          1.6792   -4.6089    1.1689 N.2       1 <0>        -0.2057
     12 N3          1.8081   -5.9052    1.6778 N.am      1 <0>        -0.4462
     13 C9          0.8887   -6.8465    1.3873 C.2       1 <0>         0.5001
     14 O2          1.0081   -7.9700    1.8272 O.2       1 <0>        -0.5031
     15 C10        -0.2889   -6.4976    0.5127 C.3       1 <0>        -0.1412
     16 C11        -0.6888   -5.0398    0.7674 C.3       1 <0>        -0.1079
     17 C12         2.9494   -6.2417    2.5324 C.3       1 <0>         0.1608
     18 H1          2.8884   -7.2910    2.8209 H         1 <0>         0.1358
     19 C13         4.2557   -6.0003    1.7579 C.3       1 <0>        -0.1400
     20 C14         5.4362   -6.0591    2.7691 C.3       1 <0>        -0.5709
     21 S1          4.7031   -5.1532    4.1962 S.o2      1 <0>         2.3770
     22 O3          5.0438   -3.7774    4.0948 O.2       1 <0>        -0.9237
     23 O4          4.9977   -5.8602    5.3931 O.2       1 <0>        -0.9291
     24 C15         2.9191   -5.3570    3.8021 C.3       1 <0>        -0.6032
     25 O5          3.7663   -0.6050   -0.6967 O.3       1 <0>        -0.2590
     26 C16         4.8444    0.1235   -1.0880 C.ar      1 <0>         0.1154
     27 C17         5.4451    1.0068   -0.2016 C.ar      1 <0>        -0.1396
     28 C18         6.5413    1.7464   -0.6003 C.ar      1 <0>        -0.0739
     29 C19         7.0413    1.6087   -1.8819 C.ar      1 <0>        -0.1499
     30 C20         6.4445    0.7288   -2.7692 C.ar      1 <0>         0.1158
     31 C21         5.3498   -0.0186   -2.3718 C.ar      1 <0>        -0.1592
     32 F1          6.9341    0.5963   -4.0214 F         1 <0>        -0.1316
     33 H2         -0.8735    1.7636   -0.5923 H         1 <0>         0.1325
     34 H3          1.1180    2.9878   -1.3581 H         1 <0>         0.1300
     35 H4          3.3116    1.8738   -1.4068 H         1 <0>         0.1336
     36 H5         -0.6830   -0.5835    0.1215 H         1 <0>         0.1646
     37 H6          2.4016   -2.3764    0.4263 H         1 <0>         0.4253
     38 H7         -0.0152   -6.6259   -0.5346 H         1 <0>         0.1133
     39 H8         -1.1274   -7.1510    0.7533 H         1 <0>         0.1255
     40 H9         -1.1655   -4.9564    1.7441 H         1 <0>         0.1070
     41 H10        -1.3858   -4.7147   -0.0051 H         1 <0>         0.1215
     42 H11         4.3820   -6.7727    0.9993 H         1 <0>         0.1067
     43 H12         4.2263   -5.0197    1.2830 H         1 <0>         0.1039
     44 H13         5.6754   -7.0884    3.0364 H         1 <0>         0.1448
     45 H14         6.3133   -5.5407    2.3816 H         1 <0>         0.1494
     46 H15         2.4572   -4.3927    3.5903 H         1 <0>         0.1465
     47 H16         2.4001   -5.8652    4.6148 H         1 <0>         0.1488
     48 H17         5.0551    1.1159    0.7996 H         1 <0>         0.1405
     49 H18         7.0083    2.4335    0.0898 H         1 <0>         0.1441
     50 H19         7.8984    2.1883   -2.1916 H         1 <0>         0.1433
     51 H20         4.8869   -0.7086   -3.0618 H         1 <0>         0.1448
@<TRIPOS>BOND
     1    1    6 ar
     2    1    2 ar
     3    1   33 1
     4    2    3 ar
     5    2   34 1
     6    3    4 ar
     7    3   35 1
     8    4    5 ar
     9    4   25 1
    10    5    6 ar
    11    5    7 1
    12    6   36 1
    13    7    8 am
    14    7   37 1
    15    8    9 2
    16    8   10 1
    17   10   16 1
    18   10   11 2
    19   11   12 1
    20   12   13 am
    21   12   17 1
    22   13   14 2
    23   13   15 1
    24   15   16 1
    25   15   38 1
    26   15   39 1
    27   16   40 1
    28   16   41 1
    29   17   18 1
    30   17   24 1
    31   17   19 1
    32   19   20 1
    33   19   42 1
    34   19   43 1
    35   20   21 1
    36   20   44 1
    37   20   45 1
    38   21   22 2
    39   21   23 2
    40   21   24 1
    41   24   46 1
    42   24   47 1
    43   25   26 1
    44   26   31 ar
    45   26   27 ar
    46   27   28 ar
    47   27   48 1
    48   28   29 ar
    49   28   49 1
    50   29   30 ar
    51   29   50 1
    52   30   31 ar
    53   30   32 1
    54   31   51 1
