@<TRIPOS>MOLECULE
ZINC61932517
   45    46     0     0     0
SMALL
USER_CHARGES

@<TRIPOS>ATOM
      1 C1         -0.0187    1.5258    0.0104 C.3       1 <0>        -0.1515
      2 C2          0.0021   -0.0041    0.0020 C.3       1 <0>         0.0870
      3 H1          0.5136   -0.3469   -0.8974 H         1 <0>         0.0655
      4 C3         -1.4496   -0.5261   -0.0159 C.3       1 <0>        -0.0620
      5 N1         -1.4446   -1.9048   -0.4555 N.4       1 <0>        -0.3818
      6 C4         -1.4136   -2.8624    0.6731 C.3       1 <0>        -0.0102
      7 C5         -0.4516   -2.4241    1.7842 C.3       1 <0>        -0.1777
      8 C6          0.8404   -1.8694    1.2346 C.3       1 <0>         0.0481
      9 O1          0.6847   -0.4445    1.0958 O.3       1 <0>        -0.3579
     10 C7         -2.6517   -2.1525   -1.2552 C.3       1 <0>         0.0542
     11 C8         -2.6010   -3.5478   -1.8224 C.ar      1 <0>        -0.1900
     12 C9         -2.2060   -3.7461   -3.1284 C.ar      1 <0>        -0.0357
     13 C10        -2.1589   -5.0387   -3.6526 C.ar      1 <0>         0.0003
     14 C11        -2.5123   -6.1261   -2.8517 C.ar      1 <0>        -0.0235
     15 C12        -2.9062   -5.9196   -1.5470 C.ar      1 <0>        -0.1955
     16 C13        -2.9467   -4.6323   -1.0274 C.ar      1 <0>         0.1543
     17 O2         -3.3305   -4.4333    0.2606 O.3       1 <0>        -0.3232
     18 C14        -3.6725   -5.5930    1.0222 C.3       1 <0>         0.0156
     19 C15        -1.7496   -5.2489   -5.0086 C.1       1 <0>        -0.1481
     20 C16        -1.4140   -5.4212   -6.1204 C.1       1 <0>        -0.1212
     21 C17        -0.9933   -5.6373   -7.5143 C.3       1 <0>         0.1825
     22 O3         -1.0278   -7.0347   -7.8111 O.3       1 <0>        -0.5671
     23 H2          1.0039    1.9031    0.0027 H         1 <0>         0.0851
     24 H3         -0.5459    1.8868   -0.8726 H         1 <0>         0.0831
     25 H4         -0.5289    1.8773    0.9072 H         1 <0>         0.0773
     26 H5         -1.8725   -0.4639    0.9868 H         1 <0>         0.1396
     27 H6         -2.0452    0.0744   -0.7035 H         1 <0>         0.1418
     28 H7         -2.4172   -2.9502    1.0892 H         1 <0>         0.1486
     29 H8         -1.1014   -3.8378    0.3001 H         1 <0>         0.1228
     30 H9         -0.9361   -1.6581    2.3897 H         1 <0>         0.1015
     31 H10        -0.2270   -3.2829    2.4167 H         1 <0>         0.1187
     32 H11         1.6572   -2.0861    1.9231 H         1 <0>         0.1253
     33 H12         1.0490   -2.3149    0.2619 H         1 <0>         0.0593
     34 H13        -3.5337   -2.0490   -0.6232 H         1 <0>         0.1402
     35 H14        -2.7020   -1.4305   -2.0702 H         1 <0>         0.1382
     36 H15        -1.9336   -2.9023   -3.7450 H         1 <0>         0.1440
     37 H16        -2.4775   -7.1278   -3.2539 H         1 <0>         0.1441
     38 H17        -3.1798   -6.7604   -0.9268 H         1 <0>         0.1481
     39 H18        -4.5057   -6.1086    0.5446 H         1 <0>         0.0691
     40 H19        -2.8128   -6.2611    1.0727 H         1 <0>         0.0668
     41 H20        -3.9600   -5.2939    2.0302 H         1 <0>         0.1125
     42 H21        -1.6698   -5.1068   -8.1844 H         1 <0>         0.0816
     43 H22         0.0210   -5.2619   -7.6500 H         1 <0>         0.0802
     44 H23        -0.7619   -7.2515   -8.7152 H         1 <0>         0.3963
     45 H24        -0.6339   -2.0590   -1.0361 H         1 <0>         0.4137
@<TRIPOS>BOND
     1    1    2 1
     2    1   23 1
     3    1   24 1
     4    1   25 1
     5    2    3 1
     6    2    9 1
     7    2    4 1
     8    4    5 1
     9    4   26 1
    10    4   27 1
    11    5    6 1
    12    5   10 1
    13    5   45 1
    14    6    7 1
    15    6   28 1
    16    6   29 1
    17    7    8 1
    18    7   30 1
    19    7   31 1
    20    8    9 1
    21    8   32 1
    22    8   33 1
    23   10   11 1
    24   10   34 1
    25   10   35 1
    26   11   16 ar
    27   11   12 ar
    28   12   13 ar
    29   12   36 1
    30   13   14 ar
    31   13   19 1
    32   14   15 ar
    33   14   37 1
    34   15   16 ar
    35   15   38 1
    36   16   17 1
    37   17   18 1
    38   18   39 1
    39   18   40 1
    40   18   41 1
    41   19   20 3
    42   20   21 1
    43   21   22 1
    44   21   42 1
    45   21   43 1
    46   22   44 1
