@<TRIPOS>MOLECULE
ZINC39546039
   49    51     0     0     0
SMALL
NO_CHARGES

@<TRIPOS>ATOM
      1 C1         -3.4751   -3.1812   -3.2797 C.3       1 <0>        -0.1455
      2 C2         -3.3712   -2.7232   -1.8236 C.3       1 <0>         0.0254
      3 O1         -2.0117   -2.4039   -1.5205 O.3       1 <0>        -0.1688
      4 N1         -1.8221   -1.8628   -0.2258 N.am      1 <0>        -0.7124
      5 C3         -1.5328   -2.6765    0.8089 C.2       1 <0>         0.4879
      6 O2         -1.3382   -3.8578    0.6154 O.2       1 <0>        -0.5265
      7 C4         -1.4511   -2.1184    2.2064 C.3       1 <0>        -0.0066
      8 H1         -2.3420   -1.5339    2.4359 H         1 <0>         0.2210
      9 C5         -0.1835   -1.2580    2.3711 C.3       1 <0>        -0.0898
     10 C6          0.5858   -1.9428    3.4778 C.2       1 <0>        -0.1350
     11 C7         -0.0774   -2.9961    3.8819 C.2       1 <0>         0.2233
     12 N2          0.3032   -3.8651    4.9220 N.pl3     1 <0>        -0.6627
     13 C8         -0.7592   -4.3557    5.7004 C.ar      1 <0>         0.1846
     14 C9         -0.4935   -5.1270    6.8226 C.ar      1 <0>        -0.1557
     15 C10        -1.5381   -5.6173    7.5821 C.ar      1 <0>        -0.0629
     16 C11        -2.8432   -5.3369    7.2195 C.ar      1 <0>        -0.1441
     17 C12        -3.1076   -4.5657    6.1044 C.ar      1 <0>        -0.0565
     18 C13        -2.0671   -4.0647    5.3392 C.ar      1 <0>        -0.1800
     19 C14        -2.3864   -3.2051    4.1445 C.3       1 <0>         0.0422
     20 N3         -1.2797   -3.2036    3.1860 N.4       1 <0>        -0.3345
     21 I1          2.4281   -1.3052    4.2447 I         1 <0>         0.0453
     22 S1         -1.9557   -0.2301    0.0170 S.o2      1 <0>         2.3020
     23 O3         -2.8797    0.2087   -0.9694 O.2       1 <0>        -0.9823
     24 O4         -2.2524   -0.0923    1.3998 O.2       1 <0>        -1.0377
     25 C15        -0.3037    0.4305   -0.3365 C.3       1 <0>        -0.5981
     26 C16         0.1109    0.0350   -1.7551 C.3       1 <0>        -0.1207
     27 C17        -0.3286    1.9558   -0.2189 C.3       1 <0>        -0.1325
     28 H2         -4.5120   -3.4248   -3.5109 H         1 <0>         0.0714
     29 H3         -3.1344   -2.3814   -3.9373 H         1 <0>         0.0663
     30 H4         -2.8527   -4.0637   -3.4284 H         1 <0>         0.0609
     31 H5         -3.9935   -1.8408   -1.6750 H         1 <0>         0.0659
     32 H6         -3.7119   -3.5230   -1.1660 H         1 <0>         0.0428
     33 H7          0.3973   -1.2535    1.4487 H         1 <0>         0.1189
     34 H8         -0.4474   -0.2413    2.6621 H         1 <0>         0.1518
     35 H9          0.5271   -5.3437    7.1016 H         1 <0>         0.1354
     36 H10        -1.3363   -6.2183    8.4564 H         1 <0>         0.1362
     37 H11        -3.6598   -5.7234    7.8112 H         1 <0>         0.1341
     38 H12        -4.1296   -4.3525    5.8279 H         1 <0>         0.1373
     39 H13        -3.2811   -3.5903    3.6553 H         1 <0>         0.1397
     40 H14        -2.5732   -2.1843    4.4777 H         1 <0>         0.1398
     41 H15         0.4112    0.0227    0.3781 H         1 <0>         0.1006
     42 H16         1.1036    0.4320   -1.9675 H         1 <0>         0.0510
     43 H17         0.1286   -1.0516   -1.8388 H         1 <0>         0.0658
     44 H18        -0.6040    0.4429   -2.4696 H         1 <0>         0.0614
     45 H19        -0.6240    2.2376    0.7917 H         1 <0>         0.0561
     46 H20         0.6641    2.3528   -0.4313 H         1 <0>         0.0598
     47 H21        -1.0435    2.3637   -0.9335 H         1 <0>         0.0602
     48 H22         1.2277   -4.1069    5.0885 H         1 <0>         0.4383
     49 H23        -1.2475   -4.0915    2.7077 H         1 <0>         0.4268
@<TRIPOS>BOND
     1    1    2 1
     2    1   28 1
     3    1   29 1
     4    1   30 1
     5    2    3 1
     6    2   31 1
     7    2   32 1
     8    3    4 1
     9    4    5 am
    10    4   22 1
    11    5    6 2
    12    5    7 1
    13    7    8 1
    14    7   20 1
    15    7    9 1
    16    9   10 1
    17    9   33 1
    18    9   34 1
    19   10   11 2
    20   10   21 1
    21   11   20 1
    22   11   12 1
    23   12   13 1
    24   12   48 1
    25   13   18 ar
    26   13   14 ar
    27   14   15 ar
    28   14   35 1
    29   15   16 ar
    30   15   36 1
    31   16   17 ar
    32   16   37 1
    33   17   18 ar
    34   17   38 1
    35   18   19 1
    36   19   20 1
    37   19   39 1
    38   19   40 1
    39   20   49 1
    40   22   23 2
    41   22   24 2
    42   22   25 1
    43   25   26 1
    44   25   27 1
    45   25   41 1
    46   26   42 1
    47   26   43 1
    48   26   44 1
    49   27   45 1
    50   27   46 1
    51   27   47 1
