@<TRIPOS>MOLECULE
ZINC02573696
   58    62     0     0     0
SMALL
USER_CHARGES
(4S)-2-amino-1-(3-cyano-5,6,7,8-tetrahydro-4H-cyclohepta[d]thiophen-2-yl)-4-(3-nitrophenyl)-5-oxo-4,6,7,8-tetrahydroquinoline-3-carbonitrile
@<TRIPOS>ATOM
      1 C1          0.5549   -2.9486   -3.7680 C.ar      1 <0>        -0.1170
      2 C2          0.4121   -2.4557   -2.4842 C.ar      1 <0>        -0.0552
      3 C3          1.3646   -2.7416   -1.5243 C.ar      1 <0>        -0.0672
      4 C4          2.4627   -3.5161   -1.8492 C.ar      1 <0>        -0.0361
      5 C5          2.6028   -4.0132   -3.1313 C.ar      1 <0>        -0.0406
      6 C6          1.6500   -3.7273   -4.0915 C.ar      1 <0>        -0.0576
      7 N1          3.7758   -4.8467   -3.4778 N.pl3     1 <0>         0.0274
      8 O1          3.9018   -5.2807   -4.6089 O.2       1 <0>        -0.1606
      9 O2          4.6152   -5.0986   -2.6319 O.3       1 <0>        -0.1555
     10 C7          1.2092   -2.2039   -0.1251 C.3       1 <0>         0.0979
     11 H1          2.0612   -2.5223    0.4755 H         1 <0>         0.1039
     12 C8          1.1758   -0.7049   -0.1753 C.2       1 <0>        -0.2315
     13 C9          0.0062   -0.0245   -0.0610 C.2       1 <0>         0.4782
     14 N2         -1.1758   -0.7086    0.1192 N.pl3     1 <0>        -0.4472
     15 C10        -1.1709   -2.0021    0.5693 C.2       1 <0>         0.2224
     16 C11        -0.0562   -2.7579    0.4795 C.2       1 <0>        -0.2437
     17 C12        -0.0411   -4.0849    0.9445 C.2       1 <0>         0.4011
     18 O3          0.9833   -4.7336    0.8639 O.2       1 <0>        -0.4522
     19 C13        -1.2697   -4.7161    1.5403 C.3       1 <0>        -0.1598
     20 C14        -2.5126   -4.0614    0.9282 C.3       1 <0>        -0.1104
     21 C15        -2.4377   -2.5533    1.1762 C.3       1 <0>        -0.1005
     22 C16        -2.3835   -0.0841   -0.1626 C.2       1 <0>         0.0262
     23 C17        -3.1679    0.6913    0.6753 C.2       1 <0>        -0.0320
     24 C18        -4.4020    1.2404    0.1331 C.2       1 <0>        -0.0823
     25 C19        -4.6526    0.9157   -1.1542 C.2       1 <0>        -0.1233
     26 S1         -3.2718   -0.0790   -1.6494 S.3       1 <0>         0.1805
     27 C20        -5.8344    1.3078   -1.9848 C.3       1 <0>        -0.0508
     28 C21        -6.0636    2.8196   -1.8548 C.3       1 <0>        -0.1155
     29 C22        -6.9954    3.0677   -0.6727 C.3       1 <0>        -0.1253
     30 C23        -6.7554    2.0223    0.4147 C.3       1 <0>        -0.1262
     31 C24        -5.3322    2.1274    0.9515 C.3       1 <0>        -0.0612
     32 C25        -2.7778    0.9439    2.0298 C.1       1 <0>         0.2473
     33 N3         -2.4684    1.1443    3.1043 N.1       1 <0>        -0.3812
     34 N4          0.0024    1.3487   -0.1195 N.pl3     1 <0>        -0.8459
     35 C26         2.3982    0.0209   -0.3471 C.1       1 <0>         0.2662
     36 N5          3.3679    0.5967   -0.4835 N.1       1 <0>        -0.4314
     37 H2         -0.1892   -2.7250   -4.5182 H         1 <0>         0.1472
     38 H3         -0.4435   -1.8470   -2.2315 H         1 <0>         0.1284
     39 H4          3.2092   -3.7358   -1.1003 H         1 <0>         0.1539
     40 H5          1.7617   -4.1120   -5.0944 H         1 <0>         0.1532
     41 H6         -1.2711   -5.6960    1.3408 H         1 <0>         0.0918
     42 H7         -1.2703   -4.5654    2.6199 H         1 <0>         0.1047
     43 H8         -2.5384   -4.2555   -0.1440 H         1 <0>         0.0795
     44 H9         -3.4090   -4.4686    1.3959 H         1 <0>         0.0928
     45 H10        -3.3000   -2.0672    0.7198 H         1 <0>         0.0933
     46 H11        -2.4388   -2.3615    2.2492 H         1 <0>         0.1041
     47 H12        -6.7183    0.7741   -1.6353 H         1 <0>         0.1031
     48 H13        -5.6455    1.0566   -3.0285 H         1 <0>         0.0850
     49 H14        -6.5209    3.2006   -2.7679 H         1 <0>         0.0778
     50 H15        -5.1113    3.3209   -1.6820 H         1 <0>         0.0695
     51 H16        -8.0303    3.0077   -1.0096 H         1 <0>         0.0692
     52 H17        -6.8069    4.0615   -0.2664 H         1 <0>         0.0674
     53 H18        -6.9100    1.0273   -0.0026 H         1 <0>         0.0756
     54 H19        -7.4603    2.1833    1.2303 H         1 <0>         0.0724
     55 H20        -5.3137    1.8073    1.9933 H         1 <0>         0.0754
     56 H21        -4.9970    3.1624    0.8847 H         1 <0>         0.0857
     57 H22         0.8410    1.8349   -0.1546 H         1 <0>         0.4239
     58 H23        -0.8389    1.8313   -0.1296 H         1 <0>         0.4053
@<TRIPOS>BOND
     1    1    6 ar
     2    1    2 ar
     3    1   37 1
     4    2    3 ar
     5    2   38 1
     6    3    4 ar
     7    3   10 1
     8    4    5 ar
     9    4   39 1
    10    5    6 ar
    11    5    7 1
    12    6   40 1
    13    7    8 2
    14    7    9 1
    15   10   11 1
    16   10   16 1
    17   10   12 1
    18   12   13 2
    19   12   35 1
    20   13   14 1
    21   13   34 1
    22   14   15 1
    23   14   22 1
    24   15   21 1
    25   15   16 2
    26   16   17 1
    27   17   18 2
    28   17   19 1
    29   19   20 1
    30   19   41 1
    31   19   42 1
    32   20   21 1
    33   20   43 1
    34   20   44 1
    35   21   45 1
    36   21   46 1
    37   22   26 1
    38   22   23 2
    39   23   24 1
    40   23   32 1
    41   24   31 1
    42   24   25 2
    43   25   26 1
    44   25   27 1
    45   27   28 1
    46   27   47 1
    47   27   48 1
    48   28   29 1
    49   28   49 1
    50   28   50 1
    51   29   30 1
    52   29   51 1
    53   29   52 1
    54   30   31 1
    55   30   53 1
    56   30   54 1
    57   31   55 1
    58   31   56 1
    59   32   33 3
    60   34   57 1
    61   34   58 1
    62   35   36 3
