@<TRIPOS>MOLECULE
ZINC08834825
   63    66     0     0     0
SMALL
USER_CHARGES
2-[4-(2-hydroxyethyl)piperazin-1-yl]-3-[(Z)-[3-(3-methoxypropyl)-4-oxo-2-thioxo-thiazolidin-5-ylidene]methyl]-7-methyl-pyrido[2,1-b]pyrimidin-4-one
@<TRIPOS>ATOM
      1 C1         -7.7837   -2.0651    1.1557 C.3       1 <0>        -0.1129
      2 C2         -6.4086   -1.4701    0.9945 C.2       1 <0>        -0.1289
      3 C3         -6.2304   -0.0833    1.0925 C.2       1 <0>        -0.0121
      4 C4         -4.9830    0.4465    0.9445 C.2       1 <0>        -0.1389
      5 C5         -3.8922   -0.4062    0.6964 C.2       1 <0>         0.4255
      6 N1         -2.6761    0.1213    0.5531 N.2       1 <0>        -0.5685
      7 C6         -1.6136   -0.6348    0.3181 C.2       1 <0>         0.4407
      8 C7         -1.7657   -2.0373    0.2100 C.2       1 <0>        -0.3634
      9 C8         -3.0604   -2.5867    0.3687 C.2       1 <0>         0.5402
     10 O1         -3.2373   -3.7900    0.2868 O.2       1 <0>        -0.5108
     11 N2         -4.0974   -1.7548    0.6065 N.am      1 <0>        -0.4265
     12 C9         -5.3489   -2.2747    0.7552 C.2       1 <0>         0.1014
     13 C10        -0.6513   -2.8697   -0.0461 C.2       1 <0>         0.1667
     14 C11         0.1213   -2.6552   -1.1506 C.2       1 <0>        -0.2572
     15 C12         1.2373   -3.3965   -1.6333 C.2       1 <0>         0.5444
     16 O2          1.6366   -4.3841   -1.0417 O.2       1 <0>        -0.4682
     17 N3          1.8246   -2.9858   -2.7437 N.am      1 <0>        -0.5222
     18 C13         1.3861   -1.8861   -3.3960 C.2       1 <0>         0.2712
     19 S1          1.9931   -1.1751   -4.8302 S.2       1 <0>        -0.3650
     20 S2          0.0127   -1.3626   -2.3805 S.3       1 <0>         0.1113
     21 C14         2.9713   -3.7293   -3.2717 C.3       1 <0>         0.0861
     22 C15         4.2625   -3.1685   -2.6723 C.3       1 <0>        -0.1303
     23 C16         5.4600   -3.9449   -3.2237 C.3       1 <0>         0.0668
     24 O3          6.6659   -3.4211   -2.6638 O.3       1 <0>        -0.3903
     25 C17         7.8507   -4.0800   -3.1159 C.3       1 <0>         0.0287
     26 N4         -0.3703   -0.0587    0.1744 N.pl3     1 <0>        -0.4674
     27 C18        -0.4723    1.4061    0.1147 C.3       1 <0>         0.0677
     28 C19         0.9169    2.0022   -0.1244 C.3       1 <0>         0.0469
     29 N5          1.8195    1.5837    0.9572 N.3       1 <0>        -0.5253
     30 C20         1.9215    0.1189    1.0170 C.3       1 <0>         0.0560
     31 C21         0.5322   -0.4773    1.2560 C.3       1 <0>         0.0629
     32 C22         3.1451    2.1979    0.8040 C.3       1 <0>         0.0545
     33 C23         2.9906    3.7120    0.6473 C.3       1 <0>         0.0841
     34 O4          2.4103    4.2569    1.8341 O.3       1 <0>        -0.5868
     35 H1         -8.5112   -1.2616    1.3429 H         1 <0>         0.0809
     36 H2         -7.7833   -2.7645    2.0047 H         1 <0>         0.0813
     37 H3         -8.0602   -2.6035    0.2372 H         1 <0>         0.0814
     38 H4         -7.0756    0.5612    1.2839 H         1 <0>         0.1595
     39 H5         -4.8333    1.5135    1.0176 H         1 <0>         0.1731
     40 H6         -5.4954   -3.3421    0.6813 H         1 <0>         0.1864
     41 H7         -0.4073   -3.6900    0.6449 H         1 <0>         0.1573
     42 H8          2.8740   -4.7918   -3.0041 H         1 <0>         0.1068
     43 H9          3.0012   -3.6282   -4.3666 H         1 <0>         0.1144
     44 H10         4.3597   -2.1060   -2.9399 H         1 <0>         0.0825
     45 H11         4.2326   -3.2696   -1.5774 H         1 <0>         0.0771
     46 H12         5.3627   -5.0074   -2.9562 H         1 <0>         0.0539
     47 H13         5.4899   -3.8438   -4.3186 H         1 <0>         0.0576
     48 H14         8.7299   -3.6201   -2.6411 H         1 <0>         0.0889
     49 H15         7.9307   -3.9817   -4.2086 H         1 <0>         0.0441
     50 H16         7.8035   -5.1453   -2.8460 H         1 <0>         0.0431
     51 H17        -1.1425    1.6937   -0.7088 H         1 <0>         0.0939
     52 H18        -0.8761    1.7846    1.0653 H         1 <0>         0.0731
     53 H19         1.3081    1.6452   -1.0885 H         1 <0>         0.0459
     54 H20         0.8470    3.0999   -0.1409 H         1 <0>         0.0937
     55 H21         2.3254   -0.2596    0.0664 H         1 <0>         0.0437
     56 H22         2.5916   -0.1687    1.8406 H         1 <0>         0.0913
     57 H23         0.1398   -0.1205    2.2197 H         1 <0>         0.0697
     58 H24         0.6010   -1.5750    1.2720 H         1 <0>         0.0890
     59 H25         3.7545    1.9816    1.6939 H         1 <0>         0.0851
     60 H26         3.6395    1.7855   -0.0879 H         1 <0>         0.0505
     61 H27         3.9785    4.1660    0.4803 H         1 <0>         0.0463
     62 H28         2.3383    3.9271   -0.2119 H         1 <0>         0.0452
     63 H29         2.2217    5.3381    1.9077 H         1 <0>         0.4038
@<TRIPOS>BOND
     1    1    2 1
     2    1   35 1
     3    1   36 1
     4    1   37 1
     5    2   12 2
     6    2    3 1
     7    3    4 2
     8    3   38 1
     9    4    5 1
    10    4   39 1
    11    5   11 1
    12    5    6 2
    13    6    7 1
    14    7    8 2
    15    7   26 1
    16    8    9 1
    17    8   13 1
    18    9   10 2
    19    9   11 am
    20   11   12 1
    21   12   40 1
    22   13   14 2
    23   13   41 1
    24   14   20 1
    25   14   15 1
    26   15   16 2
    27   15   17 am
    28   17   18 1
    29   17   21 1
    30   18   19 2
    31   18   20 1
    32   21   22 1
    33   21   42 1
    34   21   43 1
    35   22   23 1
    36   22   44 1
    37   22   45 1
    38   23   24 1
    39   23   46 1
    40   23   47 1
    41   24   25 1
    42   25   48 1
    43   25   49 1
    44   25   50 1
    45   26   31 1
    46   26   27 1
    47   27   28 1
    48   27   51 1
    49   27   52 1
    50   28   29 1
    51   28   53 1
    52   28   54 1
    53   29   30 1
    54   29   32 1
    55   30   31 1
    56   30   55 1
    57   30   56 1
    58   31   57 1
    59   31   58 1
    60   32   33 1
    61   32   59 1
    62   32   60 1
    63   33   34 1
    64   33   61 1
    65   33   62 1
    66   34   63 1
