@<TRIPOS>MOLECULE
ZINC00253218
   34    36     0     0     0
SMALL
USER_CHARGES

@<TRIPOS>ATOM
      1 C1         -1.6583    1.0286    0.2139 C.3       1 <0>        -0.1143
      2 C2         -0.8823   -0.2587    0.1056 C.ar      1 <0>        -0.1171
      3 C3         -0.8622   -0.9556   -1.0868 C.ar      1 <0>        -0.1024
      4 C4         -0.1500   -2.1365   -1.1872 C.ar      1 <0>        -0.1364
      5 C5          0.5443   -2.6238   -0.0948 C.ar      1 <0>        -0.1069
      6 C6          0.5279   -1.9322    1.1003 C.ar      1 <0>        -0.1289
      7 C7         -0.1819   -0.7425    1.2028 C.ar      1 <0>         0.1468
      8 N1         -0.1956   -0.0364    2.4098 N.am      1 <0>        -0.6605
      9 C8         -0.0565   -0.6950    3.5775 C.2       1 <0>         0.5902
     10 O1          0.1592   -1.8928    3.5785 O.2       1 <0>        -0.5303
     11 C9         -0.1650    0.0320    4.8472 C.2       1 <0>        -0.3731
     12 C10        -0.1459   -0.6537    6.0697 C.2       1 <0>         0.2731
     13 N2         -0.2446    0.0175    7.1983 N.2       1 <0>        -0.5429
     14 C11        -0.3638    1.3478    7.2158 C.2       1 <0>         0.4034
     15 C12        -0.4652    2.0114    8.4498 C.2       1 <0>        -0.1375
     16 C13        -0.5873    3.3702    8.4746 C.2       1 <0>        -0.0174
     17 C14        -0.6096    4.0833    7.2694 C.2       1 <0>        -0.1584
     18 C15        -0.5106    3.4260    6.0907 C.2       1 <0>         0.1012
     19 N3         -0.3881    2.0708    6.0573 N.am      1 <0>        -0.4213
     20 C16        -0.2855    1.4428    4.8659 C.2       1 <0>         0.5304
     21 O2         -0.3008    2.0781    3.8261 O.2       1 <0>        -0.5236
     22 H1         -1.0146    1.8650   -0.0584 H         1 <0>         0.0702
     23 H2         -2.5144    0.9946   -0.4601 H         1 <0>         0.0706
     24 H3         -2.0074    1.1573    1.2384 H         1 <0>         0.0621
     25 H4         -1.4036   -0.5779   -1.9416 H         1 <0>         0.1244
     26 H5         -0.1361   -2.6797   -2.1205 H         1 <0>         0.1219
     27 H6          1.0996   -3.5465   -0.1764 H         1 <0>         0.1242
     28 H7          1.0699   -2.3135    1.9530 H         1 <0>         0.1486
     29 H8         -0.3052    0.9274    2.4067 H         1 <0>         0.4219
     30 H9         -0.0509   -1.7294    6.0858 H         1 <0>         0.1897
     31 H10        -0.4471    1.4500    9.3723 H         1 <0>         0.1747
     32 H11        -0.6665    3.8921    9.4168 H         1 <0>         0.1613
     33 H12        -0.7064    5.1589    7.2807 H         1 <0>         0.1673
     34 H13        -0.5290    3.9831    5.1657 H         1 <0>         0.1890
@<TRIPOS>BOND
     1    1    2 1
     2    1   22 1
     3    1   23 1
     4    1   24 1
     5    2    7 ar
     6    2    3 ar
     7    3    4 ar
     8    3   25 1
     9    4    5 ar
    10    4   26 1
    11    5    6 ar
    12    5   27 1
    13    6    7 ar
    14    6   28 1
    15    7    8 1
    16    8    9 am
    17    8   29 1
    18    9   10 2
    19    9   11 1
    20   11   20 1
    21   11   12 2
    22   12   13 1
    23   12   30 1
    24   13   14 2
    25   14   19 1
    26   14   15 1
    27   15   16 2
    28   15   31 1
    29   16   17 1
    30   16   32 1
    31   17   18 2
    32   17   33 1
    33   18   19 1
    34   18   34 1
    35   19   20 am
    36   20   21 2
