@<TRIPOS>MOLECULE
ZINC37799446
   35    35     0     0     0
SMALL
USER_CHARGES

@<TRIPOS>ATOM
      1 C1          0.1959    1.5973   -0.0283 C.3       1 <0>        -0.1216
      2 C2          1.6629    1.9907    0.1593 C.3       1 <0>        -0.1397
      3 C3          2.1734    1.4244    1.4881 C.3       1 <0>         0.1067
      4 N1          1.9297   -0.0243    1.5095 N.am      1 <0>        -0.6003
      5 C4          0.5695   -0.5157    1.2505 C.3       1 <0>         0.1266
      6 H1         -0.0924   -0.2018    2.0576 H         1 <0>         0.0916
      7 C5          0.0770    0.0723   -0.0756 C.3       1 <0>        -0.1248
      8 C6          0.5836   -2.0202    1.1651 C.2       1 <0>         0.5390
      9 O1          1.2351   -2.5726    0.3040 O.2       1 <0>        -0.5308
     10 N2         -0.1276   -2.7519    2.0455 N.am      1 <0>        -0.8515
     11 C7          2.9348   -0.8861    1.7616 C.2       1 <0>         0.5082
     12 O2          2.7018   -2.0698    1.8860 O.2       1 <0>        -0.5069
     13 C8          4.3481   -0.3789    1.8889 C.3       1 <0>        -0.1354
     14 C9          5.2875   -1.5526    2.1732 C.3       1 <0>        -0.1391
     15 C10         6.7225   -1.0376    2.3024 C.3       1 <0>        -0.0084
     16 N3          7.6244   -2.1645    2.5754 N.4       1 <0>        -0.6372
     17 H2         -0.3925    1.9817    0.8048 H         1 <0>         0.0701
     18 H3         -0.1769    2.0198   -0.9614 H         1 <0>         0.0777
     19 H4          2.2560    1.5855   -0.6606 H         1 <0>         0.0704
     20 H5          1.7498    3.0772    0.1695 H         1 <0>         0.0840
     21 H6          3.2424    1.6165    1.5806 H         1 <0>         0.0877
     22 H7          1.6424    1.8966    2.3146 H         1 <0>         0.0792
     23 H8         -0.9649   -0.2067   -0.2326 H         1 <0>         0.0835
     24 H9          0.6849   -0.3148   -0.8933 H         1 <0>         0.0809
     25 H10        -0.6486   -2.3101    2.7342 H         1 <0>         0.3982
     26 H11        -0.1185   -3.7203    1.9906 H         1 <0>         0.4050
     27 H12         4.6448    0.1071    0.9595 H         1 <0>         0.1059
     28 H13         4.4044    0.3382    2.7079 H         1 <0>         0.1048
     29 H14         4.9908   -2.0386    3.1026 H         1 <0>         0.0956
     30 H15         5.2312   -2.2696    1.3542 H         1 <0>         0.0977
     31 H16         7.0192   -0.5516    1.3730 H         1 <0>         0.1351
     32 H17         6.7788   -0.3205    3.1214 H         1 <0>         0.1348
     33 H18         7.3498   -2.6144    3.4357 H         1 <0>         0.4365
     34 H19         7.5723   -2.8283    1.8172 H         1 <0>         0.4373
     35 H20         8.5707   -1.8249    2.6606 H         1 <0>         0.4392
@<TRIPOS>BOND
     1    1    7 1
     2    1    2 1
     3    1   17 1
     4    1   18 1
     5    2    3 1
     6    2   19 1
     7    2   20 1
     8    3    4 1
     9    3   21 1
    10    3   22 1
    11    4    5 1
    12    4   11 am
    13    5    6 1
    14    5    7 1
    15    5    8 1
    16    7   23 1
    17    7   24 1
    18    8    9 2
    19    8   10 am
    20   10   25 1
    21   10   26 1
    22   11   12 2
    23   11   13 1
    24   13   14 1
    25   13   27 1
    26   13   28 1
    27   14   15 1
    28   14   29 1
    29   14   30 1
    30   15   16 1
    31   15   31 1
    32   15   32 1
    33   16   33 1
    34   16   34 1
    35   16   35 1
