@<TRIPOS>MOLECULE
ZINC65474237
   40    42     0     0     0
SMALL
USER_CHARGES

@<TRIPOS>ATOM
      1 C1         -0.0184    1.5028    0.0103 C.3       1 <0>        -0.1006
      2 C2          0.0021   -0.0041    0.0020 C.2       1 <0>         0.0356
      3 C3          0.0078   -0.7900   -1.0938 C.2       1 <0>         0.0278
      4 N1          0.0278   -2.0790   -0.6509 N.pl3     1 <0>        -0.3967
      5 C4          0.0325   -2.0421    0.7028 C.cat     1 <0>         0.3025
      6 N2          0.0236   -0.7985    1.0846 N.pl3     1 <0>        -0.4714
      7 C5          0.0511   -3.2710    1.5808 C.3       1 <0>        -0.0626
      8 C6         -0.3365   -4.4807    0.7208 C.3       1 <0>        -0.1408
      9 C7          0.4916   -4.4704   -0.5674 C.3       1 <0>         0.1327
     10 H1          1.5468   -4.3540   -0.3201 H         1 <0>         0.1157
     11 C8          0.0431   -3.3037   -1.4543 C.3       1 <0>         0.0768
     12 N3          0.2946   -5.7326   -1.2846 N.am      1 <0>        -0.7237
     13 C9          1.2419   -6.1811   -2.1319 C.2       1 <0>         0.5965
     14 O1          2.2600   -5.5381   -2.3012 O.2       1 <0>        -0.5070
     15 C10         1.0436   -7.4513   -2.8536 C.2       1 <0>        -0.2651
     16 C11        -0.0570   -8.2800   -2.7668 C.2       1 <0>         0.1156
     17 N4          0.1620   -9.3254   -3.5802 N.pl3     1 <0>        -0.3343
     18 N5          1.4111   -9.1603   -4.1888 N.2       1 <0>        -0.2272
     19 C12         1.9419   -8.0453   -3.7683 C.2       1 <0>         0.0418
     20 C13         3.2803   -7.4901   -4.1824 C.3       1 <0>         0.5521
     21 F1          4.2715   -7.9707   -3.3201 F         1 <0>        -0.1642
     22 F2          3.5666   -7.8912   -5.4917 F         1 <0>        -0.1660
     23 F3          3.2451   -6.0929   -4.1198 F         1 <0>        -0.1419
     24 C14        -0.7525  -10.4498   -3.7942 C.3       1 <0>         0.0848
     25 H2          1.0042    1.8801    0.0026 H         1 <0>         0.1011
     26 H3         -0.5455    1.8639   -0.8728 H         1 <0>         0.1071
     27 H4         -0.5286    1.8543    0.9071 H         1 <0>         0.0906
     28 H5         -0.0020   -0.4618   -2.1227 H         1 <0>         0.2240
     29 H6          1.0512   -3.4158    1.9895 H         1 <0>         0.1315
     30 H7         -0.6654   -3.1530    2.3937 H         1 <0>         0.1321
     31 H8         -0.1382   -5.3989    1.2737 H         1 <0>         0.1179
     32 H9         -1.3965   -4.4261    0.4726 H         1 <0>         0.0931
     33 H10        -0.9576   -3.5007   -1.8390 H         1 <0>         0.1208
     34 H11         0.7395   -3.1872   -2.2847 H         1 <0>         0.1312
     35 H12        -0.5176   -6.2454   -1.1496 H         1 <0>         0.4080
     36 H13        -0.9329   -8.1175   -2.1563 H         1 <0>         0.1975
     37 H14        -1.4241  -10.2196   -4.6213 H         1 <0>         0.0943
     38 H15        -0.1781  -11.3453   -4.0311 H         1 <0>         0.1058
     39 H16        -1.3358  -10.6210   -2.8894 H         1 <0>         0.1040
     40 H17         0.0293   -0.4934    2.0053 H         1 <0>         0.4609
@<TRIPOS>BOND
     1    1    2 1
     2    1   25 1
     3    1   26 1
     4    1   27 1
     5    2    6 1
     6    2    3 2
     7    3    4 1
     8    3   28 1
     9    4   11 1
    10    4    5 1
    11    5    6 2
    12    5    7 1
    13    6   40 1
    14    7    8 1
    15    7   29 1
    16    7   30 1
    17    8    9 1
    18    8   31 1
    19    8   32 1
    20    9   10 1
    21    9   11 1
    22    9   12 1
    23   11   33 1
    24   11   34 1
    25   12   13 am
    26   12   35 1
    27   13   14 2
    28   13   15 1
    29   15   19 1
    30   15   16 2
    31   16   17 1
    32   16   36 1
    33   17   18 1
    34   17   24 1
    35   18   19 2
    36   19   20 1
    37   20   21 1
    38   20   22 1
    39   20   23 1
    40   24   37 1
    41   24   38 1
    42   24   39 1
