@<TRIPOS>MOLECULE
ZINC36238789
   33    34     0     0     0
SMALL
USER_CHARGES

@<TRIPOS>ATOM
      1 C1         -0.2887    1.2726   -0.1870 C.3       1 <0>        -0.1799
      2 C2         -0.0342   -0.2294   -0.0450 C.3       1 <0>         0.0732
      3 H1         -0.9870   -0.7576   -0.0095 H         1 <0>         0.1076
      4 C3          0.7667   -0.7169   -1.2248 C.2       1 <0>         0.5075
      5 O1          1.8902   -1.1433   -1.0606 O.2       1 <0>        -0.4391
      6 N1          0.2345   -0.6792   -2.4625 N.am      1 <0>        -0.6085
      7 C4          0.9736   -1.1292   -3.5512 C.2       1 <0>         0.1923
      8 N2          2.1939   -1.6277   -3.5789 N.2       1 <0>        -0.2883
      9 N3          2.7396   -1.9977   -4.6568 N.2       1 <0>        -0.2586
     10 C5          2.0709   -1.8826   -5.7867 C.2       1 <0>         0.1320
     11 S1          0.5406   -1.1865   -5.1796 S.3       1 <0>         0.0584
     12 C6          2.4788   -2.2419   -7.1922 C.3       1 <0>        -0.1093
     13 C7          2.0847   -3.6676   -7.4807 C.2       1 <0>         0.5043
     14 O2          1.5245   -4.3304   -6.6243 O.co2     1 <0>        -0.6800
     15 O3          2.3260   -4.1582   -8.5704 O.co2     1 <0>        -0.6844
     16 O4          0.6932   -0.4774    1.1597 O.3       1 <0>        -0.2664
     17 C8         -0.0309   -0.5998    2.3038 C.ar      1 <0>         0.1480
     18 C9         -1.3987   -0.3709    2.2877 C.ar      1 <0>        -0.1906
     19 C10        -2.1330   -0.4956    3.4513 C.ar      1 <0>        -0.0624
     20 C11        -1.5051   -0.8486    4.6328 C.ar      1 <0>        -0.0636
     21 C12        -0.1408   -1.0775    4.6518 C.ar      1 <0>        -0.0627
     22 C13         0.5968   -0.9594    3.4884 C.ar      1 <0>        -0.0569
     23 Cl1         2.3075   -1.2536    3.5107 Cl        1 <0>        -0.0332
     24 Cl2        -2.4305   -1.0040    6.0933 Cl        1 <0>        -0.0589
     25 H2          0.6641    1.8008   -0.2226 H         1 <0>         0.0819
     26 H3         -0.8435    1.4618   -1.1060 H         1 <0>         0.0841
     27 H4         -0.8680    1.6252    0.6663 H         1 <0>         0.0811
     28 H5         -0.6640   -0.3383   -2.5938 H         1 <0>         0.4233
     29 H6          1.9790   -1.5772   -7.8968 H         1 <0>         0.0961
     30 H7          3.5586   -2.1354   -7.2957 H         1 <0>         0.1079
     31 H8         -1.8895   -0.0950    1.3661 H         1 <0>         0.1498
     32 H9         -3.1981   -0.3170    3.4388 H         1 <0>         0.1444
     33 H10         0.3475   -1.3526    5.5750 H         1 <0>         0.1514
@<TRIPOS>BOND
     1    1    2 1
     2    1   25 1
     3    1   26 1
     4    1   27 1
     5    2    3 1
     6    2    4 1
     7    2   16 1
     8    4    5 2
     9    4    6 am
    10    6    7 1
    11    6   28 1
    12    7   11 1
    13    7    8 2
    14    8    9 1
    15    9   10 2
    16   10   11 1
    17   10   12 1
    18   12   13 1
    19   12   29 1
    20   12   30 1
    21   13   14 2
    22   13   15 1
    23   16   17 1
    24   17   22 ar
    25   17   18 ar
    26   18   19 ar
    27   18   31 1
    28   19   20 ar
    29   19   32 1
    30   20   21 ar
    31   20   24 1
    32   21   22 ar
    33   21   33 1
    34   22   23 1
