@<TRIPOS>MOLECULE
ZINC52763932
   46    47     0     0     0
SMALL
USER_CHARGES

@<TRIPOS>ATOM
      1 C1          0.2009    1.2840   -0.4008 C.ar      1 <0>        -0.1290
      2 C2          1.3905    1.9849   -0.3348 C.ar      1 <0>        -0.0129
      3 C3          2.5889    1.3040   -0.2290 C.ar      1 <0>        -0.6639
      4 C4          2.5975   -0.0778   -0.1887 C.ar      1 <0>        -0.0141
      5 C5          1.4078   -0.7786   -0.2538 C.ar      1 <0>        -0.1293
      6 C6          0.2095   -0.0977   -0.3610 C.ar      1 <0>        -0.0554
      7 C7         -1.0875   -0.8617   -0.4325 C.3       1 <0>        -0.1112
      8 C8         -1.4231   -1.1610   -1.8950 C.3       1 <0>        -0.0069
      9 N1         -2.6874   -1.9058   -1.9647 N.4       1 <0>        -0.6375
     10 S1          4.1054    2.1973   -0.1460 S.o2      1 <0>         2.6993
     11 O1          5.1375    1.2765   -0.4719 O.2       1 <0>        -0.9430
     12 O2          3.9056    3.4046   -0.8683 O.2       1 <0>        -0.9446
     13 N2          4.3355    2.6254    1.4371 N.pl3     1 <0>        -1.0051
     14 C9          3.7555    3.8072    2.1006 C.3       1 <0>         0.1116
     15 C10         4.7079    4.1040    3.2857 C.3       1 <0>        -0.1296
     16 C11         5.0922    2.6719    3.7426 C.3       1 <0>        -0.1250
     17 C12         5.1469    1.8863    2.4153 C.3       1 <0>         0.1504
     18 H1          6.1780    1.8208    2.0677 H         1 <0>         0.0891
     19 C13         4.5716    0.4826    2.6141 C.3       1 <0>        -0.1377
     20 C14         5.4964   -0.3228    3.5289 C.3       1 <0>        -0.1204
     21 C15         4.8655   -1.6860    3.8196 C.3       1 <0>         0.0772
     22 O3          5.6727   -2.3930    4.7633 O.3       1 <0>        -0.5725
     23 H2         -0.7357    1.8161   -0.4789 H         1 <0>         0.1364
     24 H3          1.3838    3.0644   -0.3662 H         1 <0>         0.1452
     25 H4          3.5339   -0.6097   -0.1068 H         1 <0>         0.1475
     26 H5          1.4146   -1.8581   -0.2231 H         1 <0>         0.1360
     27 H6         -0.9883   -1.7982    0.1164 H         1 <0>         0.1018
     28 H7         -1.8856   -0.2647    0.0086 H         1 <0>         0.1021
     29 H8         -1.5223   -0.2246   -2.4440 H         1 <0>         0.1376
     30 H9         -0.6249   -1.7580   -2.3361 H         1 <0>         0.1375
     31 H10        -2.5956   -2.7726   -1.4565 H         1 <0>         0.4363
     32 H11        -3.4262   -1.3532   -1.5563 H         1 <0>         0.4364
     33 H12         3.7294    4.6532    1.4138 H         1 <0>         0.0872
     34 H13         2.7533    3.5833    2.4662 H         1 <0>         0.0676
     35 H14         5.5863    4.6565    2.9521 H         1 <0>         0.0816
     36 H15         4.1885    4.6411    4.0793 H         1 <0>         0.0878
     37 H16         6.0653    2.6719    4.2338 H         1 <0>         0.0877
     38 H17         4.3272    2.2585    4.3999 H         1 <0>         0.0794
     39 H18         3.5840    0.5559    3.0695 H         1 <0>         0.0725
     40 H19         4.4904   -0.0169    1.6487 H         1 <0>         0.0639
     41 H20         6.4591   -0.4652    3.0379 H         1 <0>         0.0774
     42 H21         5.6422    0.2171    4.4646 H         1 <0>         0.0793
     43 H22         3.8662   -1.5435    4.2308 H         1 <0>         0.0425
     44 H23         4.7997   -2.2603    2.8955 H         1 <0>         0.0431
     45 H24         5.3320   -3.2679    4.9948 H         1 <0>         0.3823
     46 H25        -2.9087   -2.1032   -2.9291 H         1 <0>         0.4413
@<TRIPOS>BOND
     1    1    6 ar
     2    1    2 ar
     3    1   23 1
     4    2    3 ar
     5    2   24 1
     6    3    4 ar
     7    3   10 1
     8    4    5 ar
     9    4   25 1
    10    5    6 ar
    11    5   26 1
    12    6    7 1
    13    7    8 1
    14    7   27 1
    15    7   28 1
    16    8    9 1
    17    8   29 1
    18    8   30 1
    19    9   31 1
    20    9   32 1
    21    9   46 1
    22   10   11 2
    23   10   12 2
    24   10   13 1
    25   13   17 1
    26   13   14 1
    27   14   15 1
    28   14   33 1
    29   14   34 1
    30   15   16 1
    31   15   35 1
    32   15   36 1
    33   16   17 1
    34   16   37 1
    35   16   38 1
    36   17   18 1
    37   17   19 1
    38   19   20 1
    39   19   39 1
    40   19   40 1
    41   20   21 1
    42   20   41 1
    43   20   42 1
    44   21   22 1
    45   21   43 1
    46   21   44 1
    47   22   45 1
