@<TRIPOS>MOLECULE
ZINC37894228
   54    55     0     0     0
SMALL
USER_CHARGES

@<TRIPOS>ATOM
      1 C1         -0.0187    1.5258    0.0104 C.3       1 <0>        -0.1536
      2 C2          0.0021   -0.0041    0.0020 C.3       1 <0>        -0.0841
      3 H1          0.5123   -0.3556   -0.8948 H         1 <0>         0.0740
      4 C3         -1.4333   -0.5336    0.0129 C.3       1 <0>        -0.1198
      5 C4         -1.4126   -2.0635    0.0045 C.3       1 <0>        -0.1130
      6 C5         -0.6726   -2.5703    1.2440 C.3       1 <0>        -0.1419
      7 C6          0.7628   -2.0407    1.2331 C.3       1 <0>         0.0935
      8 H2          1.2900   -2.4018    2.1162 H         1 <0>         0.0627
      9 C7          0.7421   -0.5109    1.2415 C.3       1 <0>        -0.1135
     10 O1          1.4317   -2.5016    0.0574 O.3       1 <0>        -0.3607
     11 C8          2.1012   -3.7532    0.2225 C.3       1 <0>         0.0299
     12 C9          2.7783   -4.1466   -1.0919 C.3       1 <0>         0.0854
     13 H3          3.4368   -3.3410   -1.4168 H         1 <0>         0.1332
     14 C10         3.5976   -5.4216   -0.8819 C.3       1 <0>        -0.0442
     15 N1          4.3424   -5.7327   -2.1093 N.4       1 <0>        -0.5048
     16 C11         5.1291   -6.9569   -1.9076 C.3       1 <0>         0.0017
     17 C12         5.9048   -7.2809   -3.1859 C.3       1 <0>        -0.1442
     18 H4          6.5070   -6.4289   -3.5014 H         1 <0>         0.1328
     19 C13         4.9458   -7.7334   -4.3184 C.3       1 <0>        -0.1578
     20 C14         5.8464   -8.6214   -5.2026 C.3       1 <0>        -0.0119
     21 N2          6.9653   -9.0837   -4.3610 N.4       1 <0>        -0.3916
     22 C15         6.7841   -8.5422   -2.9968 C.3       1 <0>         0.0012
     23 C16         6.9743  -10.5519   -4.3134 C.3       1 <0>        -0.0496
     24 O2          1.7823   -4.3794   -2.0898 O.3       1 <0>        -0.5428
     25 H5          1.0039    1.9031    0.0027 H         1 <0>         0.0545
     26 H6         -0.5459    1.8868   -0.8726 H         1 <0>         0.0579
     27 H7         -0.5289    1.8773    0.9072 H         1 <0>         0.0568
     28 H8         -1.9435   -0.1821    0.9097 H         1 <0>         0.0636
     29 H9         -1.9605   -0.1726   -0.8702 H         1 <0>         0.0655
     30 H10        -2.4352   -2.4408    0.0122 H         1 <0>         0.0622
     31 H11        -0.9024   -2.4150   -0.8923 H         1 <0>         0.0660
     32 H12        -1.1828   -2.2188    2.1408 H         1 <0>         0.0780
     33 H13        -0.6578   -3.6602    1.2380 H         1 <0>         0.0580
     34 H14         1.7647   -0.1336    1.2338 H         1 <0>         0.0691
     35 H15         0.2319   -0.1594    2.1383 H         1 <0>         0.0819
     36 H16         2.8537   -3.6622    1.0058 H         1 <0>         0.0669
     37 H17         1.3771   -4.5186    0.5015 H         1 <0>         0.0628
     38 H18         4.2978   -5.2723   -0.0600 H         1 <0>         0.1497
     39 H19         2.9285   -6.2483   -0.6435 H         1 <0>         0.1419
     40 H20         3.6943   -5.8709   -2.8701 H         1 <0>         0.4341
     41 H21         5.8293   -6.8076   -1.0857 H         1 <0>         0.1490
     42 H22         4.4599   -7.7836   -1.6692 H         1 <0>         0.1436
     43 H23         4.1151   -8.3105   -3.9123 H         1 <0>         0.1108
     44 H24         4.5809   -6.8739   -4.8807 H         1 <0>         0.1219
     45 H25         5.2790   -9.4773   -5.5681 H         1 <0>         0.1435
     46 H26         6.2291   -8.0414   -6.0424 H         1 <0>         0.1417
     47 H27         7.7473   -8.2719   -2.5640 H         1 <0>         0.1497
     48 H28         6.2738   -9.2692   -2.3649 H         1 <0>         0.1431
     49 H29         7.1184  -10.9471   -5.3189 H         1 <0>         0.1319
     50 H30         7.7870  -10.8896   -3.6703 H         1 <0>         0.1295
     51 H31         6.0242  -10.9084   -3.9156 H         1 <0>         0.1246
     52 H32         1.1599   -5.0851   -1.8671 H         1 <0>         0.3892
     53 H33         7.8379   -8.7522   -4.7441 H         1 <0>         0.4367
     54 H34         4.9619   -4.9674   -2.3299 H         1 <0>         0.4349
@<TRIPOS>BOND
     1    1    2 1
     2    1   25 1
     3    1   26 1
     4    1   27 1
     5    2    3 1
     6    2    9 1
     7    2    4 1
     8    4    5 1
     9    4   28 1
    10    4   29 1
    11    5    6 1
    12    5   30 1
    13    5   31 1
    14    6    7 1
    15    6   32 1
    16    6   33 1
    17    7    8 1
    18    7    9 1
    19    7   10 1
    20    9   34 1
    21    9   35 1
    22   10   11 1
    23   11   12 1
    24   11   36 1
    25   11   37 1
    26   12   13 1
    27   12   14 1
    28   12   24 1
    29   14   15 1
    30   14   38 1
    31   14   39 1
    32   15   16 1
    33   15   40 1
    34   15   54 1
    35   16   17 1
    36   16   41 1
    37   16   42 1
    38   17   18 1
    39   17   22 1
    40   17   19 1
    41   19   20 1
    42   19   43 1
    43   19   44 1
    44   20   21 1
    45   20   45 1
    46   20   46 1
    47   21   22 1
    48   21   23 1
    49   21   53 1
    50   22   47 1
    51   22   48 1
    52   23   49 1
    53   23   50 1
    54   23   51 1
    55   24   52 1
