@<TRIPOS>MOLECULE
ZINC00415136
   46    48     0     0     0
SMALL
USER_CHARGES
1-ethyl-N-(4-ethylphenyl)-7-methyl-4-oxo-[1,8]naphthyridine-3-carboxamide
@<TRIPOS>ATOM
      1 C1         -7.0454    9.9371    0.8664 C.3       1 <0>        -0.1470
      2 C2         -6.9962    8.9650   -0.3140 C.3       1 <0>        -0.0849
      3 C3         -5.7527    8.1191   -0.2166 C.ar      1 <0>        -0.0963
      4 C4         -5.7862    6.9201    0.4714 C.ar      1 <0>        -0.0988
      5 C5         -4.6484    6.1425    0.5626 C.ar      1 <0>        -0.1156
      6 C6         -3.4698    6.5661   -0.0377 C.ar      1 <0>         0.1420
      7 C7         -3.4382    7.7734   -0.7235 C.ar      1 <0>        -0.1433
      8 C8         -4.5809    8.5435   -0.8158 C.ar      1 <0>        -0.1001
      9 N1         -2.3157    5.7813    0.0531 N.am      1 <0>        -0.6793
     10 C9         -2.4125    4.4370    0.0454 C.2       1 <0>         0.5786
     11 O1         -3.5070    3.9061    0.0445 O.2       1 <0>        -0.4916
     12 C10        -1.1945    3.6118    0.0380 C.2       1 <0>        -0.3270
     13 C11         0.0526    4.2003    0.0389 C.2       1 <0>         0.2255
     14 N2          1.1837    3.4814    0.0323 N.pl3     1 <0>        -0.4724
     15 C12         1.1951    2.1060    0.0241 C.ar      1 <0>         0.3812
     16 C13        -0.0162    1.3922    0.0224 C.ar      1 <0>        -0.2326
     17 C14        -1.2845    2.1422    0.0238 C.2       1 <0>         0.4385
     18 O2         -2.3609    1.5711    0.0178 O.2       1 <0>        -0.4436
     19 C15         0.0029   -0.0038    0.0135 C.ar      1 <0>         0.0152
     20 C16         1.2334   -0.6359    0.0068 C.ar      1 <0>        -0.2027
     21 C17         2.3891    0.1290    0.0091 C.ar      1 <0>         0.1965
     22 N3          2.3461    1.4447    0.0174 N.ar      1 <0>        -0.5165
     23 C18         3.7280   -0.5625    0.0023 C.3       1 <0>        -0.1105
     24 C19         2.4648    4.1920    0.0344 C.3       1 <0>         0.0902
     25 C20         2.9694    4.3380   -1.4026 C.3       1 <0>        -0.1700
     26 H1         -7.9448   10.5489    0.7959 H         1 <0>         0.0575
     27 H2         -7.0609    9.3747    1.7999 H         1 <0>         0.0556
     28 H3         -6.1658   10.5804    0.8443 H         1 <0>         0.0550
     29 H4         -6.9807    9.5274   -1.2476 H         1 <0>         0.0710
     30 H5         -7.8758    8.3217   -0.2919 H         1 <0>         0.0716
     31 H6         -6.7031    6.5911    0.9377 H         1 <0>         0.1247
     32 H7         -4.6753    5.2060    1.0998 H         1 <0>         0.1400
     33 H8         -2.5222    8.1075   -1.1880 H         1 <0>         0.1237
     34 H9         -4.5582    9.4803   -1.3528 H         1 <0>         0.1247
     35 H10        -1.4455    6.2045    0.1217 H         1 <0>         0.4017
     36 H11         0.1202    5.2782    0.0455 H         1 <0>         0.1690
     37 H12        -0.9150   -0.5729    0.0116 H         1 <0>         0.1551
     38 H13         1.2929   -1.7142   -0.0005 H         1 <0>         0.1489
     39 H14         4.0488   -0.7230   -1.0270 H         1 <0>         0.0873
     40 H15         4.4603    0.0585    0.5183 H         1 <0>         0.0823
     41 H16         3.6435   -1.5230    0.5105 H         1 <0>         0.0842
     42 H17         2.3315    5.1802    0.4748 H         1 <0>         0.0962
     43 H18         3.1919    3.6287    0.6193 H         1 <0>         0.1075
     44 H19         2.2423    4.9014   -1.9876 H         1 <0>         0.0601
     45 H20         3.9225    4.8667   -1.4011 H         1 <0>         0.0809
     46 H21         3.1027    3.3499   -1.8430 H         1 <0>         0.0675
@<TRIPOS>BOND
     1    1    2 1
     2    1   26 1
     3    1   27 1
     4    1   28 1
     5    2    3 1
     6    2   29 1
     7    2   30 1
     8    3    8 ar
     9    3    4 ar
    10    4    5 ar
    11    4   31 1
    12    5    6 ar
    13    5   32 1
    14    6    7 ar
    15    6    9 1
    16    7    8 ar
    17    7   33 1
    18    8   34 1
    19    9   10 am
    20    9   35 1
    21   10   11 2
    22   10   12 1
    23   12   17 1
    24   12   13 2
    25   13   14 1
    26   13   36 1
    27   14   15 1
    28   14   24 1
    29   15   22 ar
    30   15   16 ar
    31   16   17 1
    32   16   19 ar
    33   17   18 2
    34   19   20 ar
    35   19   37 1
    36   20   21 ar
    37   20   38 1
    38   21   22 ar
    39   21   23 1
    40   23   39 1
    41   23   40 1
    42   23   41 1
    43   24   25 1
    44   24   42 1
    45   24   43 1
    46   25   44 1
    47   25   45 1
    48   25   46 1
