@<TRIPOS>MOLECULE
ZINC66255435
   28    29     0     0     0
SMALL
USER_CHARGES

@<TRIPOS>ATOM
      1 C1         -0.0167    1.3788    0.0096 C.ar      1 <0>        -0.0787
      2 C2          1.1711    2.0860    0.0021 C.ar      1 <0>        -0.0127
      3 C3          2.3773    1.4113   -0.0131 C.ar      1 <0>        -0.5885
      4 C4          2.3966    0.0288   -0.0207 C.ar      1 <0>        -0.0769
      5 C5          1.2097   -0.6790   -0.0131 C.ar      1 <0>        -0.0641
      6 C6          0.0021   -0.0041    0.0020 C.ar      1 <0>        -0.0447
      7 Br1        -1.6224   -0.9720    0.0123 Br        1 <0>        -0.0109
      8 C7          3.7120   -0.7062   -0.0377 C.3       1 <0>         0.4755
      9 F1          3.4757   -2.0851   -0.0427 F         1 <0>        -0.1693
     10 F2          4.4294   -0.3519   -1.1853 F         1 <0>        -0.1377
     11 F3          4.4521   -0.3641    1.0992 F         1 <0>        -0.1485
     12 S1          3.8909    2.3132   -0.0233 S.o2      1 <0>         2.6130
     13 O1          4.6884    1.7567   -1.0594 O.2       1 <0>        -0.9501
     14 O2          3.5432    3.6905    0.0141 O.2       1 <0>        -0.9592
     15 N1          4.6677    1.9823    1.4013 N.2       1 <0>        -0.9389
     16 C8          5.8253    2.5271    1.6548 C.2       1 <0>         0.5393
     17 N2          6.5432    3.4003    0.8607 N.pl3     1 <0>        -0.7709
     18 C9          7.4526    4.3045    1.5594 C.3       1 <0>         0.0972
     19 C10         8.1621    3.5353    2.7071 C.3       1 <0>        -0.1164
     20 S2          6.8391    2.3198    3.1110 S.3       1 <0>        -0.0295
     21 H1         -0.9591    1.9061    0.0260 H         1 <0>         0.1582
     22 H2          1.1565    3.1659    0.0077 H         1 <0>         0.1661
     23 H3          1.2248   -1.7589   -0.0194 H         1 <0>         0.1611
     24 H4          8.1979    4.6831    0.8600 H         1 <0>         0.1167
     25 H5          6.8878    5.1389    1.9753 H         1 <0>         0.0960
     26 H6          9.0681    3.0420    2.3553 H         1 <0>         0.1205
     27 H7          8.3708    4.1883    3.5545 H         1 <0>         0.1385
     28 H8          6.4486    3.4124   -0.1046 H         1 <0>         0.4148
@<TRIPOS>BOND
     1    1    6 ar
     2    1    2 ar
     3    1   21 1
     4    2    3 ar
     5    2   22 1
     6    3    4 ar
     7    3   12 1
     8    4    5 ar
     9    4    8 1
    10    5    6 ar
    11    5   23 1
    12    6    7 1
    13    8    9 1
    14    8   10 1
    15    8   11 1
    16   12   13 2
    17   12   14 2
    18   12   15 1
    19   15   16 2
    20   16   20 1
    21   16   17 1
    22   17   18 1
    23   17   28 1
    24   18   19 1
    25   18   24 1
    26   18   25 1
    27   19   20 1
    28   19   26 1
    29   19   27 1
