@<TRIPOS>MOLECULE
ZINC63480122
   60    66     0     0     0
SMALL
USER_CHARGES

@<TRIPOS>ATOM
      1 C1         -0.0163    1.3482    0.0095 C.ar      1 <0>        -0.1507
      2 C2          1.1658    2.1014    0.0022 C.ar      1 <0>         0.0551
      3 C3          2.3912    1.5352   -0.0125 C.ar      1 <0>        -0.2099
      4 C4          2.5288    0.1198   -0.0218 C.ar      1 <0>         0.3297
      5 N1          3.5868   -0.6543   -0.0369 N.pl3     1 <0>        -0.5852
      6 C5          3.1432   -2.0528   -0.0408 C.3       1 <0>         0.0618
      7 C6          1.6315   -2.0084   -0.0255 C.2       1 <0>         0.0722
      8 C7          1.2951   -0.6984   -0.0144 C.ar      1 <0>        -0.1579
      9 C8          0.0021   -0.0041    0.0020 C.ar      1 <0>        -0.0081
     10 C9          0.6905   -3.1856   -0.0239 C.3       1 <0>        -0.0922
     11 C10         0.4565   -3.6534   -1.4617 C.3       1 <0>         0.0949
     12 H1          1.4023   -3.8591   -1.9630 H         1 <0>         0.1248
     13 C11        -0.4601   -4.8727   -1.4990 C.3       1 <0>        -0.1553
     14 H2         -1.3291   -4.7601   -0.8506 H         1 <0>         0.1590
     15 C12        -0.8072   -4.8221   -3.0326 C.3       1 <0>        -0.1617
     16 H3          0.1787   -4.9628   -3.4756 H         1 <0>         0.1209
     17 C13        -1.3562   -6.1364   -3.2614 C.2       1 <0>         0.5806
     18 O1         -2.2292   -6.4465   -4.0434 O.2       1 <0>        -0.4258
     19 N2         -0.6729   -6.9599   -2.3993 N.am      1 <0>        -0.5449
     20 C14         0.0908   -6.2635   -1.4806 C.2       1 <0>         0.5538
     21 O2          1.0103   -6.6798   -0.8092 O.2       1 <0>        -0.4218
     22 C15        -0.7496   -8.3594   -2.4357 C.ar      1 <0>         0.1262
     23 C16        -1.5452   -8.9880   -3.3842 C.ar      1 <0>        -0.0919
     24 C17        -1.6187  -10.3666   -3.4175 C.ar      1 <0>        -0.0859
     25 C18        -0.9010  -11.1210   -2.5074 C.ar      1 <0>        -0.0588
     26 C19        -0.1082  -10.4979   -1.5615 C.ar      1 <0>        -0.0240
     27 C20        -0.0258   -9.1193   -1.5272 C.ar      1 <0>        -0.0841
     28 N3          0.6581  -11.3088   -0.5888 N.pl3     1 <0>         0.0300
     29 O3          0.5906  -12.5155   -0.6218 O.2       1 <0>        -0.1419
     30 O4          1.3514  -10.7645    0.2386 O.3       1 <0>        -0.1497
     31 C21        -1.0141   -3.4117   -3.3461 C.3       1 <0>         0.1614
     32 N4         -0.3564   -2.6469   -2.2325 N.3       1 <0>        -0.6223
     33 C22        -0.4106   -2.9622   -4.6535 C.ar      1 <0>        -0.1321
     34 C23         0.8599   -3.0403   -5.1787 C.ar      1 <0>        -0.0527
     35 C24         1.1209   -2.5239   -6.4357 C.ar      1 <0>        -0.1349
     36 C25         0.1035   -1.9311   -7.1612 C.ar      1 <0>        -0.0688
     37 C26        -1.1705   -1.8524   -6.6384 C.ar      1 <0>        -0.1301
     38 C27        -1.4416   -2.3699   -5.3733 C.ar      1 <0>         0.1547
     39 N5         -2.6280   -2.4105   -4.6394 N.am      1 <0>        -0.6493
     40 C28        -2.4658   -3.0027   -3.4433 C.2       1 <0>         0.5278
     41 O5         -3.3221   -3.1763   -2.6021 O.2       1 <0>        -0.4789
     42 H4         -0.9665    1.8612    0.0259 H         1 <0>         0.1563
     43 H5          1.0933    3.1789    0.0083 H         1 <0>         0.1598
     44 H6          3.2717    2.1606   -0.0175 H         1 <0>         0.1596
     45 H7          3.4952   -2.5561   -0.9413 H         1 <0>         0.1729
     46 H8          3.5129   -2.5667    0.8465 H         1 <0>         0.1747
     47 H9         -0.9210   -0.5647    0.0081 H         1 <0>         0.1553
     48 H10         1.1268   -3.9987    0.5563 H         1 <0>         0.1347
     49 H11        -0.2596   -2.8905    0.4214 H         1 <0>         0.1182
     50 H12        -2.1062   -8.3994   -4.0949 H         1 <0>         0.1685
     51 H13        -2.2377  -10.8561   -4.1549 H         1 <0>         0.1618
     52 H14        -0.9601  -12.1990   -2.5354 H         1 <0>         0.1635
     53 H15         0.5974   -8.6332   -0.7912 H         1 <0>         0.1747
     54 H16        -1.0498   -2.2133   -1.6415 H         1 <0>         0.3542
     55 H17         1.6523   -3.5038   -4.6098 H         1 <0>         0.1235
     56 H18         2.1168   -2.5834   -6.8492 H         1 <0>         0.1351
     57 H19         0.3077   -1.5275   -8.1419 H         1 <0>         0.1389
     58 H20        -1.9599   -1.3881   -7.2108 H         1 <0>         0.1348
     59 H21        -3.4722   -2.0524   -4.9557 H         1 <0>         0.4238
     60 H22         4.5087   -0.3528   -0.0446 H         1 <0>         0.4556
@<TRIPOS>BOND
     1    1    9 ar
     2    1    2 ar
     3    1   42 1
     4    2    3 ar
     5    2   43 1
     6    3    4 ar
     7    3   44 1
     8    4    8 ar
     9    4    5 2
    10    5    6 1
    11    5   60 1
    12    6    7 1
    13    6   45 1
    14    6   46 1
    15    7    8 2
    16    7   10 1
    17    8    9 ar
    18    9   47 1
    19   10   11 1
    20   10   48 1
    21   10   49 1
    22   11   12 1
    23   11   32 1
    24   11   13 1
    25   13   14 1
    26   13   20 1
    27   13   15 1
    28   15   16 1
    29   15   17 1
    30   15   31 1
    31   17   18 2
    32   17   19 am
    33   19   20 am
    34   19   22 1
    35   20   21 2
    36   22   27 ar
    37   22   23 ar
    38   23   24 ar
    39   23   50 1
    40   24   25 ar
    41   24   51 1
    42   25   26 ar
    43   25   52 1
    44   26   27 ar
    45   26   28 1
    46   27   53 1
    47   28   29 2
    48   28   30 1
    49   31   40 1
    50   31   32 1
    51   31   33 1
    52   32   54 1
    53   33   38 ar
    54   33   34 ar
    55   34   35 ar
    56   34   55 1
    57   35   36 ar
    58   35   56 1
    59   36   37 ar
    60   36   57 1
    61   37   38 ar
    62   37   58 1
    63   38   39 1
    64   39   40 am
    65   39   59 1
    66   40   41 2
