@<TRIPOS>MOLECULE
ZINC25055058
   61    64     0     0     0
SMALL
USER_CHARGES
(5S)-3-[2-[1-[[(3S)-2,3-dihydro-1,4-benzodioxin-3-yl]methyl]-2,5-dimethyl-pyrrol-3-yl]-2-oxo-ethyl]-5-(2-methylsulfonylethyl)imidazolidine-2,4-dione
@<TRIPOS>ATOM
      1 C1         -1.4888   -3.4179   -0.0017 C.3       1 <0>        -0.0893
      2 C2         -0.6660   -2.1554   -0.0032 C.2       1 <0>         0.0065
      3 C3         -1.1579   -0.9053    0.0147 C.2       1 <0>        -0.1472
      4 C4          0.0021   -0.0041    0.0020 C.2       1 <0>        -0.2708
      5 C5          1.1162   -0.8220   -0.0130 C.2       1 <0>         0.1388
      6 N1          0.6978   -2.1001   -0.0159 N.pl3     1 <0>        -0.4318
      7 C6          1.5814   -3.2686   -0.0302 C.3       1 <0>         0.1043
      8 C7          1.9022   -3.6829    1.4073 C.3       1 <0>         0.0339
      9 H1          0.9761   -3.7943    1.9903 H         1 <0>         0.0941
     10 C8          2.7366   -4.9709    1.4006 C.3       1 <0>         0.0304
     11 O1          3.0306   -5.3215    2.7573 O.3       1 <0>        -0.3010
     12 C9          3.4667   -4.3188    3.5678 C.ar      1 <0>         0.0451
     13 C10         4.1006   -4.6346    4.7604 C.ar      1 <0>        -0.1123
     14 C11         4.5457   -3.6276    5.5957 C.ar      1 <0>        -0.1142
     15 C12         4.3606   -2.3031    5.2451 C.ar      1 <0>        -0.1126
     16 C13         3.7310   -1.9816    4.0576 C.ar      1 <0>        -0.1113
     17 C14         3.2827   -2.9874    3.2143 C.ar      1 <0>         0.0529
     18 O2          2.6672   -2.6554    2.0466 O.3       1 <0>        -0.3007
     19 C15         2.5510   -0.3614   -0.0247 C.3       1 <0>        -0.0874
     20 C16        -0.0178    1.4603    0.0101 C.2       1 <0>         0.4179
     21 O3          1.0247    2.0812    0.0035 O.2       1 <0>        -0.4623
     22 C17        -1.3330    2.1960    0.0203 C.3       1 <0>         0.0776
     23 N2         -1.0848    3.6398    0.0270 N.am      1 <0>        -0.5649
     24 C18        -0.9566    4.3807    1.1453 C.2       1 <0>         0.5307
     25 O4         -1.0223    3.9930    2.2921 O.2       1 <0>        -0.4587
     26 C19        -0.7112    5.7994    0.6711 C.3       1 <0>         0.0903
     27 H2          0.2447    6.2178    1.0192 H         1 <0>         0.1365
     28 N3         -0.7395    5.6834   -0.7972 N.am      1 <0>        -0.7335
     29 C20        -0.9633    4.3866   -1.0764 C.2       1 <0>         0.7183
     30 O5         -1.0457    3.9430   -2.2050 O.2       1 <0>        -0.5385
     31 C21        -1.8263    6.7262    1.1594 C.3       1 <0>        -0.1170
     32 C22        -1.5503    8.1528    0.6802 C.3       1 <0>        -0.6199
     33 S1         -2.8724    9.2516    1.2592 S.o2      1 <0>         2.4223
     34 O6         -4.0858    8.8662    0.6281 O.2       1 <0>        -0.9346
     35 O7         -2.8195    9.3097    2.6780 O.2       1 <0>        -0.9333
     36 C23        -2.3700   10.8651    0.5997 C.3       1 <0>        -0.6577
     37 H3         -2.5578   -3.1588    0.0098 H         1 <0>         0.0874
     38 H4         -1.2460   -4.0127    0.8912 H         1 <0>         0.0661
     39 H5         -1.2631   -4.0037   -0.9050 H         1 <0>         0.0691
     40 H6         -2.1993   -0.6197    0.0322 H         1 <0>         0.1499
     41 H7          1.0814   -4.1000   -0.5486 H         1 <0>         0.1214
     42 H8          2.5141   -3.0166   -0.5560 H         1 <0>         0.1094
     43 H9          2.1637   -5.7764    0.9180 H         1 <0>         0.1275
     44 H10         3.6698   -4.8004    0.8438 H         1 <0>         0.0842
     45 H11         4.2463   -5.6685    5.0366 H         1 <0>         0.1354
     46 H12         5.0392   -3.8757    6.5237 H         1 <0>         0.1341
     47 H13         4.7086   -1.5184    5.9004 H         1 <0>         0.1339
     48 H14         3.5883   -0.9462    3.7859 H         1 <0>         0.1344
     49 H15         3.2170   -1.2368   -0.0356 H         1 <0>         0.0662
     50 H16         2.7504    0.2399    0.8746 H         1 <0>         0.0882
     51 H17         2.7328    0.2489   -0.9216 H         1 <0>         0.0843
     52 H18        -1.9104    1.9273   -0.8766 H         1 <0>         0.1323
     53 H19        -1.9020    1.9176    0.9196 H         1 <0>         0.1297
     54 H20        -0.5901    6.5760   -1.4224 H         1 <0>         0.4674
     55 H21        -2.7906    6.3839    0.7557 H         1 <0>         0.0939
     56 H22        -1.8622    6.7092    2.2587 H         1 <0>         0.1100
     57 H23        -0.5860    8.4951    1.0839 H         1 <0>         0.1436
     58 H24        -1.5144    8.1699   -0.4191 H         1 <0>         0.1353
     59 H25        -3.1085   11.6264    0.8912 H         1 <0>         0.1340
     60 H26        -2.3127   10.8110   -0.4975 H         1 <0>         0.1306
     61 H27        -1.3842   11.1362    1.0055 H         1 <0>         0.1310
@<TRIPOS>BOND
     1    1    2 1
     2    1   37 1
     3    1   38 1
     4    1   39 1
     5    2    6 1
     6    2    3 2
     7    3    4 1
     8    3   40 1
     9    4    5 2
    10    4   20 1
    11    5    6 1
    12    5   19 1
    13    6    7 1
    14    7    8 1
    15    7   41 1
    16    7   42 1
    17    8    9 1
    18    8   18 1
    19    8   10 1
    20   10   11 1
    21   10   43 1
    22   10   44 1
    23   11   12 1
    24   12   17 ar
    25   12   13 ar
    26   13   14 ar
    27   13   45 1
    28   14   15 ar
    29   14   46 1
    30   15   16 ar
    31   15   47 1
    32   16   17 ar
    33   16   48 1
    34   17   18 1
    35   19   49 1
    36   19   50 1
    37   19   51 1
    38   20   21 2
    39   20   22 1
    40   22   23 1
    41   22   52 1
    42   22   53 1
    43   23   29 am
    44   23   24 am
    45   24   25 2
    46   24   26 1
    47   26   27 1
    48   26   28 1
    49   26   31 1
    50   28   29 am
    51   28   54 1
    52   29   30 2
    53   31   32 1
    54   31   55 1
    55   31   56 1
    56   32   33 1
    57   32   57 1
    58   32   58 1
    59   33   34 2
    60   33   35 2
    61   33   36 1
    62   36   59 1
    63   36   60 1
    64   36   61 1
