@<TRIPOS>MOLECULE
ZINC06790344
   31    33     0     0     0
SMALL
USER_CHARGES
4-chloro-N-(8-cyano-6-thiabicyclo[3.3.0]octa-7,9-dien-7-yl)-2-methyl-pyrazole-3-carboxamide
@<TRIPOS>ATOM
      1 C1          0.1443    0.9585    2.4675 C.3       1 <0>         0.0796
      2 N1          0.5821    0.7942    1.0791 N.pl3     1 <0>        -0.2581
      3 C2         -0.0201    1.3619   -0.0096 C.2       1 <0>        -0.0290
      4 C3          0.7093    0.9494   -1.1134 C.2       1 <0>        -0.1013
      5 C4          1.7279    0.1402   -0.6016 C.2       1 <0>         0.0294
      6 N2          1.5897    0.0945    0.6987 N.2       1 <0>        -0.2550
      7 Cl1         0.4192    1.3511   -2.7772 Cl        1 <0>        -0.0082
      8 C5         -1.2062    2.2298   -0.0096 C.2       1 <0>         0.5961
      9 O1         -1.0771    3.4363    0.0794 O.2       1 <0>        -0.4638
     10 N3         -2.4368    1.6892   -0.1082 N.am      1 <0>        -0.6051
     11 C6         -3.5483    2.5109   -0.2180 C.2       1 <0>         0.0773
     12 C7         -4.8791    2.1474   -0.3282 C.2       1 <0>        -0.1047
     13 C8         -5.8681    3.2193   -0.4302 C.2       1 <0>        -0.0893
     14 C9         -5.3629    4.4665   -0.4072 C.2       1 <0>        -0.2253
     15 S1         -3.6089    4.2404   -0.2431 S.3       1 <0>         0.2939
     16 C10        -6.4386    5.5126   -0.5197 C.3       1 <0>        -0.0334
     17 C11        -7.6709    4.7483   -1.0518 C.3       1 <0>        -0.1162
     18 C12        -7.3888    3.3150   -0.5590 C.3       1 <0>        -0.0628
     19 C13        -5.2732    0.7707   -0.3422 C.1       1 <0>         0.2636
     20 N4         -5.5858   -0.3213   -0.3532 N.1       1 <0>        -0.4179
     21 H1         -0.5024    0.1263    2.7454 H         1 <0>         0.0954
     22 H2          1.0148    0.9769    3.1232 H         1 <0>         0.1107
     23 H3         -0.4052    1.8946    2.5668 H         1 <0>         0.0976
     24 H4          2.4934   -0.3585   -1.1775 H         1 <0>         0.2023
     25 H5         -2.5450    0.7253   -0.1023 H         1 <0>         0.4257
     26 H6         -6.1407    6.2902   -1.2231 H         1 <0>         0.0833
     27 H7         -6.6523    5.9447    0.4579 H         1 <0>         0.0889
     28 H8         -7.7128    4.7853   -2.1404 H         1 <0>         0.0793
     29 H9         -8.5902    5.1374   -0.6141 H         1 <0>         0.0867
     30 H10        -7.7524    2.5880   -1.2853 H         1 <0>         0.0755
     31 H11        -7.8606    3.1480    0.4094 H         1 <0>         0.0847
@<TRIPOS>BOND
     1    1    2 1
     2    1   21 1
     3    1   22 1
     4    1   23 1
     5    2    6 1
     6    2    3 1
     7    3    4 2
     8    3    8 1
     9    4    5 1
    10    4    7 1
    11    5    6 2
    12    5   24 1
    13    8    9 2
    14    8   10 am
    15   10   11 1
    16   10   25 1
    17   11   15 1
    18   11   12 2
    19   12   13 1
    20   12   19 1
    21   13   18 1
    22   13   14 2
    23   14   15 1
    24   14   16 1
    25   16   17 1
    26   16   26 1
    27   16   27 1
    28   17   18 1
    29   17   28 1
    30   17   29 1
    31   18   30 1
    32   18   31 1
    33   19   20 3
