@<TRIPOS>MOLECULE
ZINC20222148
   43    45     0     0     0
SMALL
USER_CHARGES
(3S,4R)-3-amino-6-chloro-5,7-dimethyl-spiro[chroman-2,1'-cyclohexane]-4-ol
@<TRIPOS>ATOM
      1 C1         -4.1322    7.0644   -2.3102 C.3       1 <0>        -0.1321
      2 C2         -4.3621    5.6032   -2.0215 C.ar      1 <0>        -0.0087
      3 C3         -3.5520    4.9412   -1.1213 C.ar      1 <0>        -0.1391
      4 C4         -3.7596    3.5923   -0.8528 C.ar      1 <0>         0.1372
      5 C5         -4.7786    2.9131   -1.4977 C.ar      1 <0>        -0.1949
      6 C6         -5.5918    3.5827   -2.3965 C.ar      1 <0>        -0.0002
      7 C7         -5.3852    4.9242   -2.6588 C.ar      1 <0>        -0.0714
      8 Cl1        -6.4085    5.7561   -3.7877 Cl        1 <0>        -0.0397
      9 C8         -6.7070    2.8456   -3.0922 C.3       1 <0>        -0.1387
     10 C9         -5.0246    1.4462   -1.2514 C.3       1 <0>         0.1608
     11 H1         -6.1048    1.2396   -1.2275 H         1 <0>         0.0935
     12 C10        -4.3410    1.0191    0.0496 C.3       1 <0>        -0.0259
     13 H2         -4.3613   -0.0743    0.1686 H         1 <0>         0.1553
     14 C11        -2.9034    1.5507    0.0379 C.3       1 <0>         0.1155
     15 O1         -2.9455    2.9772    0.0445 O.3       1 <0>        -0.2950
     16 C12        -2.1876    1.0609   -1.2214 C.3       1 <0>        -0.1441
     17 C13        -0.7526    1.5926   -1.2316 C.3       1 <0>        -0.1199
     18 C14        -0.0127    1.0858    0.0080 C.3       1 <0>        -0.1268
     19 C15        -0.7288    1.5792    1.2670 C.3       1 <0>        -0.1194
     20 C16        -2.1638    1.0489    1.2783 C.3       1 <0>        -0.1155
     21 N1         -5.0668    1.5805    1.1968 N.4       1 <0>        -0.6807
     22 O2         -4.4930    0.6859   -2.3384 O.3       1 <0>        -0.5586
     23 H3         -3.2818    7.4266   -1.7138 H         1 <0>         0.0796
     24 H4         -5.0344    7.6364   -2.0476 H         1 <0>         0.0874
     25 H5         -3.9126    7.1967   -3.3799 H         1 <0>         0.0879
     26 H6         -2.7543    5.4725   -0.6235 H         1 <0>         0.1484
     27 H7         -7.2401    3.5356   -3.7628 H         1 <0>         0.0859
     28 H8         -7.4074    2.4483   -2.3428 H         1 <0>         0.0760
     29 H9         -6.2875    2.0150   -3.6788 H         1 <0>         0.0908
     30 H10        -2.1713   -0.0389   -1.2295 H         1 <0>         0.0832
     31 H11        -2.7205    1.4263   -2.1117 H         1 <0>         0.1108
     32 H12        -0.2370    1.2391   -2.1367 H         1 <0>         0.0745
     33 H13        -0.7690    2.6925   -1.2250 H         1 <0>         0.0689
     34 H14         0.0022   -0.0141    0.0020 H         1 <0>         0.0658
     35 H15         1.0193    1.4665    0.0003 H         1 <0>         0.0734
     36 H16        -0.1963    1.2153    2.1581 H         1 <0>         0.0765
     37 H17        -0.7443    2.6791    1.2728 H         1 <0>         0.0766
     38 H18        -2.6792    1.4061    2.1820 H         1 <0>         0.0672
     39 H19        -2.1479   -0.0510    1.2758 H         1 <0>         0.0988
     40 H20        -4.5729    1.2716    2.1299 H         1 <0>         0.4585
     41 H21        -6.1032    1.2118    1.1910 H         1 <0>         0.4595
     42 H22        -4.5782   -0.4108   -2.3361 H         1 <0>         0.4234
     43 H23        -5.0678    2.6784    1.1284 H         1 <0>         0.4553
@<TRIPOS>BOND
     1    1    2 1
     2    1   23 1
     3    1   24 1
     4    1   25 1
     5    2    7 ar
     6    2    3 ar
     7    3    4 ar
     8    3   26 1
     9    4   15 1
    10    4    5 ar
    11    5    6 ar
    12    5   10 1
    13    6    7 ar
    14    6    9 1
    15    7    8 1
    16    9   27 1
    17    9   28 1
    18    9   29 1
    19   10   11 1
    20   10   12 1
    21   10   22 1
    22   12   13 1
    23   12   14 1
    24   12   21 1
    25   14   20 1
    26   14   15 1
    27   14   16 1
    28   16   17 1
    29   16   30 1
    30   16   31 1
    31   17   18 1
    32   17   32 1
    33   17   33 1
    34   18   19 1
    35   18   34 1
    36   18   35 1
    37   19   20 1
    38   19   36 1
    39   19   37 1
    40   20   38 1
    41   20   39 1
    42   21   40 1
    43   21   41 1
    44   21   43 1
    45   22   42 1
