@<TRIPOS>MOLECULE
ZINC36718395
   54    58     0     0     0
SMALL
USER_CHARGES

@<TRIPOS>ATOM
      1 C1         -0.1087    1.0559   -2.7306 C.ar      1 <0>        -0.1142
      2 C2          0.5162    1.9719   -1.9048 C.ar      1 <0>        -0.1167
      3 C3          1.4068    1.5331   -0.9470 C.ar      1 <0>        -0.1093
      4 C4          1.6773    0.1788   -0.8039 C.ar      1 <0>        -0.0988
      5 C5          1.0486   -0.7353   -1.6190 C.ar      1 <0>        -0.0715
      6 C6          0.1577   -0.2897   -2.5881 C.ar      1 <0>        -0.1136
      7 C7          1.2683   -2.2206   -1.5025 C.3       1 <0>        -0.0927
      8 C8          2.5764   -2.5216   -0.7727 C.3       1 <0>         0.1665
      9 H1          3.4219   -2.2823   -1.4177 H         1 <0>         0.1290
     10 N1          2.6221   -1.6863    0.4387 N.am      1 <0>        -0.6007
     11 C9          2.6717   -0.2321    0.2528 C.3       1 <0>         0.1391
     12 C10         2.6184   -2.2358    1.6694 C.2       1 <0>         0.6031
     13 O1          2.6353   -3.4460    1.7955 O.2       1 <0>        -0.4870
     14 C11         2.5941   -1.3751    2.8566 C.2       1 <0>        -0.0823
     15 C12         2.6794   -1.7942    4.1533 C.2       1 <0>        -0.1074
     16 C13         2.6170   -0.6433    4.9544 C.2       1 <0>        -0.2216
     17 C14         2.4978    0.4145    4.1220 C.2       1 <0>        -0.0077
     18 O2          2.4895   -0.0300    2.8587 O.3       1 <0>        -0.1625
     19 C15         2.6234   -3.9786   -0.3907 C.2       1 <0>         0.4669
     20 O3          3.5609   -4.4082    0.2390 O.2       1 <0>        -0.4485
     21 O4          1.6236   -4.7993   -0.7499 O.3       1 <0>        -0.2930
     22 C16         1.7559   -6.1246   -0.4761 C.ar      1 <0>         0.0755
     23 C17         1.5850   -6.5850    0.8215 C.ar      1 <0>        -0.0856
     24 C18         1.7192   -7.9305    1.1003 C.ar      1 <0>        -0.1053
     25 C19         2.0250   -8.8233    0.0814 C.ar      1 <0>         0.1505
     26 C20         2.1955   -8.3618   -1.2174 C.ar      1 <0>        -0.1314
     27 C21         2.0562   -7.0166   -1.4954 C.ar      1 <0>        -0.0982
     28 N2          2.1617  -10.1876    0.3633 N.am      1 <0>        -0.6687
     29 C22         1.3931  -10.7602    1.3109 C.2       1 <0>         0.6080
     30 O5          0.5173  -10.1145    1.8563 O.2       1 <0>        -0.5030
     31 C23         1.6118  -12.1603    1.6844 C.2       1 <0>        -0.2656
     32 C24         0.9369  -12.9314    2.6188 C.2       1 <0>        -0.0589
     33 C25         1.3736  -14.2278    2.7502 C.2       1 <0>        -0.1857
     34 C26         2.4048  -14.6571    1.9815 C.2       1 <0>        -0.2150
     35 S1          2.8097  -13.3185    1.0506 S.3       1 <0>         0.2093
     36 H2         -0.8070    1.3929   -3.4825 H         1 <0>         0.1252
     37 H3          0.3082    3.0266   -2.0093 H         1 <0>         0.1259
     38 H4          1.8977    2.2485   -0.3039 H         1 <0>         0.1258
     39 H5         -0.3306   -1.0035   -3.2350 H         1 <0>         0.1258
     40 H6          0.4395   -2.6633   -0.9500 H         1 <0>         0.0974
     41 H7          1.3062   -2.6567   -2.5007 H         1 <0>         0.1018
     42 H8          3.6744    0.0596   -0.0597 H         1 <0>         0.0892
     43 H9          2.4271    0.2623    1.1929 H         1 <0>         0.1271
     44 H10         2.7762   -2.8138    4.4962 H         1 <0>         0.1614
     45 H11         2.6564   -0.6096    6.0331 H         1 <0>         0.1589
     46 H12         2.4247    1.4485    4.4255 H         1 <0>         0.2120
     47 H13         1.3472   -5.8906    1.6137 H         1 <0>         0.1361
     48 H14         1.5868   -8.2886    2.1106 H         1 <0>         0.1405
     49 H15         2.4333   -9.0554   -2.0103 H         1 <0>         0.1362
     50 H16         2.1847   -6.6581   -2.5061 H         1 <0>         0.1368
     51 H17         2.8096  -10.7208   -0.1233 H         1 <0>         0.4111
     52 H18         0.1204  -12.5380    3.2061 H         1 <0>         0.1521
     53 H19         0.9022  -14.8954    3.4562 H         1 <0>         0.1418
     54 H20         2.8588  -15.6369    1.9673 H         1 <0>         0.1918
@<TRIPOS>BOND
     1    1    6 ar
     2    1    2 ar
     3    1   36 1
     4    2    3 ar
     5    2   37 1
     6    3    4 ar
     7    3   38 1
     8    4   11 1
     9    4    5 ar
    10    5    6 ar
    11    5    7 1
    12    6   39 1
    13    7    8 1
    14    7   40 1
    15    7   41 1
    16    8    9 1
    17    8   10 1
    18    8   19 1
    19   10   11 1
    20   10   12 am
    21   11   42 1
    22   11   43 1
    23   12   13 2
    24   12   14 1
    25   14   18 1
    26   14   15 2
    27   15   16 1
    28   15   44 1
    29   16   17 2
    30   16   45 1
    31   17   18 1
    32   17   46 1
    33   19   20 2
    34   19   21 1
    35   21   22 1
    36   22   27 ar
    37   22   23 ar
    38   23   24 ar
    39   23   47 1
    40   24   25 ar
    41   24   48 1
    42   25   26 ar
    43   25   28 1
    44   26   27 ar
    45   26   49 1
    46   27   50 1
    47   28   29 am
    48   28   51 1
    49   29   30 2
    50   29   31 1
    51   31   35 1
    52   31   32 2
    53   32   33 1
    54   32   52 1
    55   33   34 2
    56   33   53 1
    57   34   35 1
    58   34   54 1
