@<TRIPOS>MOLECULE
ZINC58102046
   31    32     0     0     0
SMALL
USER_CHARGES

@<TRIPOS>ATOM
      1 C1         -0.0187    1.5258    0.0104 C.3       1 <0>        -0.1308
      2 C2          0.0021   -0.0041    0.0020 C.3       1 <0>        -0.0840
      3 H1         -1.0137   -0.3989    0.0221 H         1 <0>         0.1321
      4 C3          0.7456   -0.5168   -1.2098 C.ar      1 <0>        -0.1063
      5 C4          0.5310   -0.3869   -2.5636 C.ar      1 <0>        -0.0923
      6 C5          1.4024   -0.9830   -3.4614 C.ar      1 <0>         0.0874
      7 C6          2.4855   -1.7069   -2.9913 C.ar      1 <0>        -0.1080
      8 C7          2.7010   -1.8368   -1.6351 C.ar      1 <0>        -0.1115
      9 C8          1.8283   -1.2404   -0.7270 C.ar      1 <0>         0.1491
     10 N1          1.8324   -1.2287    0.6694 N.am      1 <0>        -0.6605
     11 C9          0.7988   -0.5301    1.1769 C.2       1 <0>         0.5345
     12 O1          0.5522   -0.3540    2.3513 O.2       1 <0>        -0.4871
     13 C10         3.8826   -2.6267   -1.1341 C.3       1 <0>         0.1554
     14 H2          3.6103   -3.1437   -0.2140 H         1 <0>         0.1158
     15 C11         5.0509   -1.6777   -0.8593 C.3       1 <0>         0.0316
     16 O2          6.1310   -2.4087   -0.2753 O.3       1 <0>        -0.3799
     17 C12         7.2788   -1.6111    0.0223 C.3       1 <0>         0.0291
     18 O3          4.2689   -3.5842   -2.1221 O.3       1 <0>        -0.5380
     19 F1          1.1958   -0.8587   -4.7907 F         1 <0>        -0.1305
     20 H3          1.0039    1.9031    0.0027 H         1 <0>         0.0623
     21 H4         -0.5459    1.8868   -0.8726 H         1 <0>         0.0763
     22 H5         -0.5289    1.8773    0.9072 H         1 <0>         0.0758
     23 H6         -0.3152    0.1783   -2.9253 H         1 <0>         0.1469
     24 H7          3.1650   -2.1717   -3.6902 H         1 <0>         0.1464
     25 H8          2.5019   -1.6738    1.2120 H         1 <0>         0.4156
     26 H9          5.3810   -1.2273   -1.7954 H         1 <0>         0.0595
     27 H10         4.7291   -0.8945   -0.1729 H         1 <0>         0.0587
     28 H11         8.0534   -2.2391    0.4624 H         1 <0>         0.0910
     29 H12         7.6552   -1.1593   -0.8955 H         1 <0>         0.0435
     30 H13         7.0032   -0.8265    0.7270 H         1 <0>         0.0424
     31 H14         4.5249   -3.1940   -2.9690 H         1 <0>         0.3759
@<TRIPOS>BOND
     1    1    2 1
     2    1   20 1
     3    1   21 1
     4    1   22 1
     5    2    3 1
     6    2   11 1
     7    2    4 1
     8    4    9 ar
     9    4    5 ar
    10    5    6 ar
    11    5   23 1
    12    6    7 ar
    13    6   19 1
    14    7    8 ar
    15    7   24 1
    16    8    9 ar
    17    8   13 1
    18    9   10 1
    19   10   11 am
    20   10   25 1
    21   11   12 2
    22   13   14 1
    23   13   15 1
    24   13   18 1
    25   15   16 1
    26   15   26 1
    27   15   27 1
    28   16   17 1
    29   17   28 1
    30   17   29 1
    31   17   30 1
    32   18   31 1
