@<TRIPOS>MOLECULE
ZINC63361902
   64    66     0     0     0
SMALL
USER_CHARGES

@<TRIPOS>ATOM
      1 C1         -0.0187    1.5258    0.0104 C.3       1 <0>        -0.1882
      2 C2          0.0021   -0.0041    0.0020 C.3       1 <0>         0.1364
      3 C3          0.7421   -0.5109    1.2415 C.3       1 <0>        -0.1860
      4 C4         -1.4333   -0.5336    0.0129 C.3       1 <0>        -0.1434
      5 O1          0.6709   -0.4649   -1.1737 O.3       1 <0>        -0.3546
      6 C5          1.9522   -0.0848   -1.3367 C.2       1 <0>         0.6505
      7 O2          2.4879    0.6189   -0.5034 O.2       1 <0>        -0.5292
      8 N1          2.6407   -0.4850   -2.4240 N.am      1 <0>        -0.7155
      9 C6          4.0349   -0.0714   -2.6014 C.3       1 <0>         0.1930
     10 H1          4.4222   -0.4886   -3.5309 H         1 <0>         0.1435
     11 C7          4.8715   -0.5810   -1.4260 C.3       1 <0>        -0.1122
     12 C8          4.8972   -2.0876   -1.4437 C.2       1 <0>         0.0741
     13 C9          5.8495   -2.8783   -1.9891 C.ar      1 <0>        -0.1668
     14 C10         7.0978   -2.5836   -2.7028 C.ar      1 <0>        -0.0125
     15 C11         7.8609   -3.6105   -3.1412 C.ar      1 <0>        -0.1497
     16 C12         7.4902   -4.9459   -2.9321 C.ar      1 <0>         0.0547
     17 C13         6.3583   -5.2958   -2.2851 C.ar      1 <0>        -0.2090
     18 C14         5.4807   -4.2968   -1.7806 C.ar      1 <0>         0.3281
     19 N2          4.3447   -4.3798   -1.1316 N.pl3     1 <0>        -0.5826
     20 C15         3.8669   -3.0217   -0.8493 C.3       1 <0>         0.0589
     21 C16         4.1096    1.4328   -2.6563 C.2       1 <0>         0.4427
     22 O3          3.2062    2.0992   -2.2095 O.2       1 <0>        -0.4505
     23 O4          5.1797    2.0321   -3.2016 O.3       1 <0>        -0.3461
     24 C17         5.1837    3.4610   -3.2201 C.3       1 <0>         0.0833
     25 C18         6.4738    3.9589   -3.8749 C.3       1 <0>         0.1187
     26 H2          7.3325    3.5286   -3.3596 H         1 <0>         0.0838
     27 C19         6.5362    5.4859   -3.7837 C.3       1 <0>         0.0895
     28 H3          5.6568    5.9156   -4.2635 H         1 <0>         0.0887
     29 C20         7.8000    5.9808   -4.4938 C.3       1 <0>         0.0837
     30 H4          8.6810    5.5910   -3.9840 H         1 <0>         0.0828
     31 C21         7.7853    5.4850   -5.9431 C.3       1 <0>         0.0547
     32 H5          8.7074    5.7859   -6.4404 H         1 <0>         0.0796
     33 C22         7.6747    3.9581   -5.9509 C.3       1 <0>         0.2382
     34 H6          8.5492    3.5278   -5.4629 H         1 <0>         0.0655
     35 O5          6.4947    3.5636   -5.2480 O.3       1 <0>        -0.3853
     36 O6          7.6042    3.4923   -7.3000 O.3       1 <0>        -0.5375
     37 O7          6.6664    6.0496   -6.6296 O.3       1 <0>        -0.5391
     38 O8          7.8301    7.4093   -4.4757 O.3       1 <0>        -0.5463
     39 O9          6.5724    5.8812   -2.4110 O.3       1 <0>        -0.5583
     40 H7          1.0039    1.9031    0.0027 H         1 <0>         0.0916
     41 H8         -0.5459    1.8868   -0.8726 H         1 <0>         0.0617
     42 H9         -0.5289    1.8773    0.9072 H         1 <0>         0.0733
     43 H10         0.2319   -0.1594    2.1383 H         1 <0>         0.0769
     44 H11         0.7568   -1.6008    1.2356 H         1 <0>         0.0560
     45 H12         1.7647   -0.1336    1.2338 H         1 <0>         0.0855
     46 H13        -1.9605   -0.1726   -0.8702 H         1 <0>         0.0699
     47 H14        -1.4185   -1.6235    0.0069 H         1 <0>         0.0658
     48 H15        -1.9435   -0.1821    0.9097 H         1 <0>         0.0859
     49 H16         2.2131   -1.0467   -3.0892 H         1 <0>         0.4191
     50 H17         5.8888   -0.1992   -1.5116 H         1 <0>         0.1334
     51 H18         4.4315   -0.2360   -0.4903 H         1 <0>         0.1422
     52 H19         7.4022   -1.5619   -2.8755 H         1 <0>         0.1633
     53 H20         8.7797   -3.3959   -3.6666 H         1 <0>         0.1585
     54 H21         8.1365   -5.7271   -3.3041 H         1 <0>         0.1611
     55 H22         6.1177   -6.3400   -2.1501 H         1 <0>         0.1607
     56 H23         3.7924   -2.8633    0.2265 H         1 <0>         0.1743
     57 H24         2.8976   -2.8610   -1.3213 H         1 <0>         0.1683
     58 H25         4.3258    3.8194   -3.7889 H         1 <0>         0.0833
     59 H26         5.1257    3.8378   -2.1989 H         1 <0>         0.1034
     60 H27         7.5325    2.5313   -7.3810 H         1 <0>         0.3946
     61 H28         6.5947    5.7779   -7.5549 H         1 <0>         0.3893
     62 H29         8.6052    7.7919   -4.9093 H         1 <0>         0.3898
     63 H30         6.6126    6.8382   -2.2782 H         1 <0>         0.3987
     64 H31         3.8970   -5.2018   -0.8770 H         1 <0>         0.4561
@<TRIPOS>BOND
     1    1    2 1
     2    1   40 1
     3    1   41 1
     4    1   42 1
     5    2    3 1
     6    2    4 1
     7    2    5 1
     8    3   43 1
     9    3   44 1
    10    3   45 1
    11    4   46 1
    12    4   47 1
    13    4   48 1
    14    5    6 1
    15    6    7 2
    16    6    8 am
    17    8    9 1
    18    8   49 1
    19    9   10 1
    20    9   11 1
    21    9   21 1
    22   11   12 1
    23   11   50 1
    24   11   51 1
    25   12   20 1
    26   12   13 2
    27   13   18 ar
    28   13   14 ar
    29   14   15 ar
    30   14   52 1
    31   15   16 ar
    32   15   53 1
    33   16   17 ar
    34   16   54 1
    35   17   18 ar
    36   17   55 1
    37   18   19 2
    38   19   20 1
    39   19   64 1
    40   20   56 1
    41   20   57 1
    42   21   22 2
    43   21   23 1
    44   23   24 1
    45   24   25 1
    46   24   58 1
    47   24   59 1
    48   25   26 1
    49   25   35 1
    50   25   27 1
    51   27   28 1
    52   27   29 1
    53   27   39 1
    54   29   30 1
    55   29   31 1
    56   29   38 1
    57   31   32 1
    58   31   33 1
    59   31   37 1
    60   33   34 1
    61   33   35 1
    62   33   36 1
    63   36   60 1
    64   37   61 1
    65   38   62 1
    66   39   63 1
