@<TRIPOS>MOLECULE
ZINC38592998
   53    56     0     0     0
SMALL
USER_CHARGES

@<TRIPOS>ATOM
      1 C1         -0.5227    1.4503    0.0381 C.3       1 <0>        -0.1231
      2 C2         -0.2372   -0.0292    0.0154 C.ar      1 <0>        -0.0123
      3 C3         -0.2333   -0.7079   -1.1953 C.ar      1 <0>        -0.1498
      4 C4          0.0272   -2.0495   -1.2314 C.ar      1 <0>         0.0119
      5 C5          0.2887   -2.7353   -0.0455 C.ar      1 <0>        -0.2241
      6 C6          0.2821   -2.0601    1.1860 C.ar      1 <0>         0.1515
      7 C7          0.0220   -0.6897    1.1951 C.ar      1 <0>        -0.1475
      8 O1          0.5180   -2.6921    2.3582 O.3       1 <0>        -0.1799
      9 C8          1.0007   -3.9503    2.3514 C.2       1 <0>         0.0984
     10 C9          1.0506   -4.7141    1.2203 C.2       1 <0>        -0.2578
     11 C10         0.5813   -4.1907   -0.0672 C.2       1 <0>         0.4590
     12 O2          0.4440   -4.8842   -1.0594 O.2       1 <0>        -0.4334
     13 C11         1.6308   -6.0394    1.5910 C.3       1 <0>         0.2338
     14 H1          2.5516   -6.2155    1.0349 H         1 <0>         0.1201
     15 N1          1.9152   -5.9638    3.0334 N.am      1 <0>        -0.5928
     16 C12         1.5451   -4.7420    3.4683 C.2       1 <0>         0.5743
     17 O3          1.6459   -4.3513    4.6143 O.2       1 <0>        -0.4659
     18 C13         2.4981   -7.0292    3.8528 C.3       1 <0>         0.1413
     19 C14         4.0224   -6.8976    3.8512 C.3       1 <0>         0.0376
     20 O4          4.3960   -5.6780    4.4953 O.3       1 <0>        -0.3788
     21 C15         5.8068   -5.4568    4.5479 C.3       1 <0>         0.0316
     22 C16         0.6377   -7.1380    1.3122 C.ar      1 <0>        -0.0619
     23 C17         0.7744   -7.9206    0.1803 C.ar      1 <0>        -0.1492
     24 C18        -0.1375   -8.9312   -0.0778 C.ar      1 <0>         0.1160
     25 C19        -1.1901   -9.1566    0.8041 C.ar      1 <0>         0.1127
     26 C20        -1.3215   -8.3692    1.9371 C.ar      1 <0>        -0.0832
     27 C21        -0.4044   -7.3648    2.1912 C.ar      1 <0>        -0.0954
     28 Br1        -2.7501   -8.6716    3.1386 Br        1 <0>        -0.0197
     29 O5         -2.0881  -10.1472    0.5547 O.3       1 <0>        -0.4713
     30 O6         -0.0046   -9.7009   -1.1911 O.3       1 <0>        -0.3003
     31 C22         1.0993   -9.4122   -2.0514 C.3       1 <0>         0.0220
     32 C23         0.0311   -2.7843   -2.5471 C.3       1 <0>        -0.1348
     33 H2          0.4113    2.0022   -0.0675 H         1 <0>         0.0827
     34 H3         -1.1899    1.7043   -0.7856 H         1 <0>         0.0770
     35 H4         -0.9960    1.7145    0.9838 H         1 <0>         0.0760
     36 H5         -0.4371   -0.1743   -2.1119 H         1 <0>         0.1386
     37 H6          0.0201   -0.1471    2.1289 H         1 <0>         0.1469
     38 H7          2.1273   -6.9459    4.8744 H         1 <0>         0.1044
     39 H8          2.2167   -7.9988    3.4420 H         1 <0>         0.1070
     40 H9          4.4604   -7.7401    4.3865 H         1 <0>         0.0687
     41 H10         4.3856   -6.8918    2.8235 H         1 <0>         0.0541
     42 H11         6.2069   -5.4210    3.5346 H         1 <0>         0.0394
     43 H12         6.0078   -4.5112    5.0515 H         1 <0>         0.0874
     44 H13         6.2817   -6.2694    5.0976 H         1 <0>         0.0428
     45 H14         1.5921   -7.7438   -0.5027 H         1 <0>         0.1439
     46 H15        -0.5054   -6.7541    3.0763 H         1 <0>         0.1349
     47 H16        -1.8462  -11.0025    0.9357 H         1 <0>         0.3923
     48 H17         1.0203   -8.3866   -2.4121 H         1 <0>         0.0623
     49 H18         2.0314   -9.5323   -1.4993 H         1 <0>         0.0572
     50 H19         1.0882  -10.0973   -2.8990 H         1 <0>         0.1054
     51 H20         1.0542   -2.8670   -2.9140 H         1 <0>         0.0789
     52 H21        -0.3866   -3.7814   -2.4077 H         1 <0>         0.1007
     53 H22        -0.5714   -2.2360   -3.2713 H         1 <0>         0.0705
@<TRIPOS>BOND
     1    1    2 1
     2    1   33 1
     3    1   34 1
     4    1   35 1
     5    2    7 ar
     6    2    3 ar
     7    3    4 ar
     8    3   36 1
     9    4    5 ar
    10    4   32 1
    11    5   11 1
    12    5    6 ar
    13    6    7 ar
    14    6    8 1
    15    7   37 1
    16    8    9 1
    17    9   16 1
    18    9   10 2
    19   10   11 1
    20   10   13 1
    21   11   12 2
    22   13   14 1
    23   13   15 1
    24   13   22 1
    25   15   16 am
    26   15   18 1
    27   16   17 2
    28   18   19 1
    29   18   38 1
    30   18   39 1
    31   19   20 1
    32   19   40 1
    33   19   41 1
    34   20   21 1
    35   21   42 1
    36   21   43 1
    37   21   44 1
    38   22   27 ar
    39   22   23 ar
    40   23   24 ar
    41   23   45 1
    42   24   25 ar
    43   24   30 1
    44   25   26 ar
    45   25   29 1
    46   26   27 ar
    47   26   28 1
    48   27   46 1
    49   29   47 1
    50   30   31 1
    51   31   48 1
    52   31   49 1
    53   31   50 1
    54   32   51 1
    55   32   52 1
    56   32   53 1
