@<TRIPOS>MOLECULE
ZINC25443817
   55    57     0     0     0
SMALL
USER_CHARGES
N-[(1-dimethylaminocycloheptyl)methyl]-3-methyl-4-oxo-2-sulfanyl-quinazoline-7-carboxamide
@<TRIPOS>ATOM
      1 C1         -7.9341    5.2692    6.7870 C.3       1 <0>         0.0741
      2 N1         -7.3574    4.6148    5.6100 N.pl3     1 <0>        -0.5380
      3 C2         -6.0454    4.7815    5.3249 C.2       1 <0>         0.5458
      4 O1         -5.3291    5.4680    6.0300 O.3       1 <0>        -0.5372
      5 C3         -5.5158    4.1023    4.1318 C.ar      1 <0>        -0.2248
      6 C4         -4.1771    4.2157    3.7583 C.ar      1 <0>        -0.0201
      7 C5         -3.7233    3.5641    2.6475 C.ar      1 <0>        -0.1728
      8 C6         -4.5936    2.7905    1.8692 C.ar      1 <0>        -0.1012
      9 C7         -5.9308    2.6643    2.2220 C.ar      1 <0>        -0.0636
     10 C8         -6.4058    3.3213    3.3606 C.ar      1 <0>         0.2091
     11 N2         -7.7012    3.2263    3.7426 N.2       1 <0>        -0.5621
     12 C9         -8.1484    3.8411    4.8096 C.2       1 <0>         0.5322
     13 S1         -9.8495    3.6607    5.2320 S.2       1 <0>        -0.7347
     14 C10        -4.0828    2.0971    0.6649 C.2       1 <0>         0.5756
     15 O2         -4.8329    1.4206   -0.0108 O.2       1 <0>        -0.5101
     16 N3         -2.7859    2.2162    0.3179 N.am      1 <0>        -0.7563
     17 C11        -2.2804    1.5302   -0.8737 C.3       1 <0>         0.0689
     18 C12        -0.8192    1.9201   -1.1054 C.3       1 <0>         0.0638
     19 C13        -0.2160    0.9780   -2.1648 C.3       1 <0>        -0.1301
     20 C14        -0.6136    1.3632   -3.6026 C.3       1 <0>        -0.1173
     21 C15        -2.0609    1.7598   -3.7132 C.3       1 <0>        -0.1511
     22 C16        -2.1603    3.2933   -3.5805 C.3       1 <0>        -0.1280
     23 C17        -2.0973    3.7355   -2.1953 C.3       1 <0>        -0.1399
     24 C18        -0.7609    3.3654   -1.5201 C.3       1 <0>        -0.1370
     25 N4         -0.0790    1.7564    0.1528 N.4       1 <0>        -0.3991
     26 C19        -0.0773    0.3520    0.5838 C.3       1 <0>        -0.0566
     27 C20         1.2915    2.2704    0.0281 C.3       1 <0>        -0.0550
     28 H1         -7.1535    5.8450    7.3057 H         1 <0>         0.0846
     29 H2         -8.3409    4.5070    7.4678 H         1 <0>         0.0831
     30 H3         -8.7409    5.9469    6.4712 H         1 <0>         0.0832
     31 H4         -3.4992    4.8133    4.3497 H         1 <0>         0.1321
     32 H5         -2.6848    3.6499    2.3638 H         1 <0>         0.1091
     33 H6         -6.5979    2.0632    1.6220 H         1 <0>         0.1457
     34 H7         -2.1070    2.8286    0.9295 H         1 <0>         0.4004
     35 H8         -2.3509    0.4422   -0.7280 H         1 <0>         0.0894
     36 H9         -2.8809    1.8227   -1.7477 H         1 <0>         0.1502
     37 H10         0.8817    1.0087   -2.1003 H         1 <0>         0.0883
     38 H11        -0.5654   -0.0492   -1.9836 H         1 <0>         0.0922
     39 H12        -0.0025    2.2148   -3.9363 H         1 <0>         0.0745
     40 H13        -0.4450    0.5065   -4.2717 H         1 <0>         0.0819
     41 H14        -2.4547    1.4414   -4.6897 H         1 <0>         0.0795
     42 H15        -2.6362    1.2756   -2.9103 H         1 <0>         0.0848
     43 H16        -1.3281    3.7632   -4.1252 H         1 <0>         0.0684
     44 H17        -3.1158    3.6368   -4.0036 H         1 <0>         0.0752
     45 H18        -2.2071    4.8292   -2.1542 H         1 <0>         0.0818
     46 H19        -2.9093    3.2637   -1.6225 H         1 <0>         0.0932
     47 H20        -0.6018    3.9954   -0.6325 H         1 <0>         0.0845
     48 H21         0.0695    3.5109   -2.2267 H         1 <0>         0.0991
     49 H22         0.4825    0.2583    1.5261 H         1 <0>         0.1274
     50 H23         0.3998   -0.2682   -0.1893 H         1 <0>         0.1229
     51 H24        -1.1129    0.0143    0.7373 H         1 <0>         0.1269
     52 H25         1.8219    2.1356    0.9823 H         1 <0>         0.1274
     53 H26         1.2602    3.3402   -0.2260 H         1 <0>         0.1263
     54 H27         1.8186    1.7203   -0.7653 H         1 <0>         0.1221
     55 H28        -0.5924    2.3467    0.9261 H         1 <0>         0.4311
@<TRIPOS>BOND
     1    1    2 1
     2    1   28 1
     3    1   29 1
     4    1   30 1
     5    2   12 1
     6    2    3 1
     7    3    4 1
     8    3    5 2
     9    5   10 ar
    10    5    6 ar
    11    6    7 ar
    12    6   31 1
    13    7    8 ar
    14    7   32 1
    15    8    9 ar
    16    8   14 1
    17    9   10 ar
    18    9   33 1
    19   10   11 2
    20   11   12 1
    21   12   13 2
    22   14   15 2
    23   14   16 am
    24   16   17 1
    25   16   34 1
    26   17   18 1
    27   17   35 1
    28   17   36 1
    29   18   24 1
    30   18   19 1
    31   18   25 1
    32   19   20 1
    33   19   37 1
    34   19   38 1
    35   20   21 1
    36   20   39 1
    37   20   40 1
    38   21   22 1
    39   21   41 1
    40   21   42 1
    41   22   23 1
    42   22   43 1
    43   22   44 1
    44   23   24 1
    45   23   45 1
    46   23   46 1
    47   24   47 1
    48   24   48 1
    49   25   26 1
    50   25   27 1
    51   25   55 1
    52   26   49 1
    53   26   50 1
    54   26   51 1
    55   27   52 1
    56   27   53 1
    57   27   54 1
