@<TRIPOS>MOLECULE
ZINC62238595
   34    36     0     0     0
SMALL
USER_CHARGES

@<TRIPOS>ATOM
      1 C1         -0.0298    1.4318   -0.1885 C.ar      1 <0>        -0.0480
      2 C2          1.1470    2.1501   -0.2319 C.ar      1 <0>        -0.1387
      3 C3          2.3650    1.4947   -0.1473 C.ar      1 <0>         0.1389
      4 C4          2.4077    0.1156   -0.0188 C.ar      1 <0>        -0.1457
      5 C5          1.2366   -0.6118    0.0260 C.ar      1 <0>        -0.0716
      6 C6          0.0077    0.0432   -0.0588 C.ar      1 <0>        -0.0849
      7 C7         -1.2517   -0.7322   -0.0112 C.2       1 <0>         0.1487
      8 C8         -1.6003   -1.7736   -0.8195 C.2       1 <0>        -0.1181
      9 N1         -2.8075   -2.2073   -0.4650 N.2       1 <0>        -0.2043
     10 N2         -3.2586   -1.5121    0.5195 N.2       1 <0>        -0.0208
     11 N3         -2.2953   -0.5496    0.8575 N.pl3     1 <0>        -0.2896
     12 C9         -2.3840    0.4084    1.8774 C.ar      1 <0>         0.0888
     13 C10        -1.2461    0.7855    2.5778 C.ar      1 <0>        -0.0766
     14 C11        -1.3353    1.7295    3.5817 C.ar      1 <0>        -0.1348
     15 C12        -2.5590    2.3001    3.8901 C.ar      1 <0>         0.1336
     16 C13        -3.6953    1.9249    3.1929 C.ar      1 <0>        -0.1340
     17 C14        -3.6090    0.9854    2.1845 C.ar      1 <0>        -0.0578
     18 F1         -2.6444    3.2235    4.8725 F         1 <0>        -0.1200
     19 C15        -0.7570   -2.3401   -1.9326 C.3       1 <0>         0.0951
     20 N4         -0.0146   -3.5076   -1.4389 N.4       1 <0>        -0.6378
     21 F2          3.5148    2.2027   -0.1907 F         1 <0>        -0.1202
     22 H1         -0.9787    1.9438   -0.2504 H         1 <0>         0.1408
     23 H2          1.1190    3.2250   -0.3323 H         1 <0>         0.1538
     24 H3          3.3595   -0.3905    0.0460 H         1 <0>         0.1532
     25 H4          1.2709   -1.6866    0.1258 H         1 <0>         0.1234
     26 H5         -0.2917    0.3405    2.3378 H         1 <0>         0.1420
     27 H6         -0.4504    2.0228    4.1269 H         1 <0>         0.1557
     28 H7         -4.6488    2.3704    3.4353 H         1 <0>         0.1582
     29 H8         -4.4945    0.6966    1.6378 H         1 <0>         0.1514
     30 H9         -1.4008   -2.6416   -2.7588 H         1 <0>         0.1577
     31 H10        -0.0540   -1.5819   -2.2777 H         1 <0>         0.1502
     32 H11         0.6200   -3.8298   -2.1541 H         1 <0>         0.4433
     33 H12         0.5091   -3.2498   -0.6159 H         1 <0>         0.4267
     34 H13        -0.6631   -4.2453   -1.2075 H         1 <0>         0.4415
@<TRIPOS>BOND
     1    1    6 ar
     2    1    2 ar
     3    1   22 1
     4    2    3 ar
     5    2   23 1
     6    3    4 ar
     7    3   21 1
     8    4    5 ar
     9    4   24 1
    10    5    6 ar
    11    5   25 1
    12    6    7 1
    13    7   11 1
    14    7    8 2
    15    8    9 1
    16    8   19 1
    17    9   10 2
    18   10   11 1
    19   11   12 1
    20   12   17 ar
    21   12   13 ar
    22   13   14 ar
    23   13   26 1
    24   14   15 ar
    25   14   27 1
    26   15   16 ar
    27   15   18 1
    28   16   17 ar
    29   16   28 1
    30   17   29 1
    31   19   20 1
    32   19   30 1
    33   19   31 1
    34   20   32 1
    35   20   33 1
    36   20   34 1
