@<TRIPOS>MOLECULE
ZINC05669988
   29    30     0     0     0
SMALL
USER_CHARGES
N-[(3-bromophenyl)methyleneamino]-2-methyl-pyrazole-3-carboxamide
@<TRIPOS>ATOM
      1 C1          3.8577   10.3729    0.2548 C.3       1 <0>         0.0815
      2 N1          4.9650    9.4142    0.2211 N.pl3     1 <0>        -0.2507
      3 C2          4.8354    8.0580    0.3217 C.2       1 <0>        -0.0429
      4 C3          6.1164    7.5397    0.2372 C.2       1 <0>        -0.1852
      5 C4          6.9548    8.6475    0.0935 C.2       1 <0>         0.0004
      6 N2          6.2060    9.7207    0.0959 N.2       1 <0>        -0.2681
      7 C5          3.5850    7.2999    0.4814 C.2       1 <0>         0.6144
      8 O1          2.5156    7.8800    0.4654 O.2       1 <0>        -0.4983
      9 N3          3.6238    5.9627    0.6454 N.am      1 <0>        -0.5700
     10 N4          2.4448    5.2554    0.9145 N.2       1 <0>        -0.2217
     11 C6          2.4823    3.9677    1.0725 C.2       1 <0>         0.1152
     12 C7          1.2412    3.2232    1.3557 C.ar      1 <0>        -0.0521
     13 C8          1.2779    1.8370    1.5263 C.ar      1 <0>        -0.0731
     14 C9          0.1137    1.1467    1.7915 C.ar      1 <0>        -0.1164
     15 C10        -1.0901    1.8229    1.8831 C.ar      1 <0>        -0.0736
     16 C11        -1.1337    3.1971    1.7210 C.ar      1 <0>        -0.0965
     17 C12         0.0239    3.9006    1.4552 C.ar      1 <0>        -0.0512
     18 Br1        -2.7834    4.1114    1.8562 Br        1 <0>        -0.0421
     19 H1          3.6046   10.5994    1.2906 H         1 <0>         0.0886
     20 H2          4.1549   11.2892   -0.2553 H         1 <0>         0.0996
     21 H3          2.9899    9.9435   -0.2457 H         1 <0>         0.1090
     22 H4          6.4059    6.4999    0.2744 H         1 <0>         0.1618
     23 H5          8.0302    8.6227   -0.0028 H         1 <0>         0.1913
     24 H6          4.4681    5.4901    0.5771 H         1 <0>         0.3918
     25 H7          3.4223    3.4415    0.9964 H         1 <0>         0.1290
     26 H8          2.2159    1.3071    1.4511 H         1 <0>         0.1374
     27 H9          0.1410    0.0752    1.9235 H         1 <0>         0.1394
     28 H10        -1.9994    1.2766    2.0862 H         1 <0>         0.1369
     29 H11        -0.0116    4.9721    1.3248 H         1 <0>         0.1459
@<TRIPOS>BOND
     1    1    2 1
     2    1   19 1
     3    1   20 1
     4    1   21 1
     5    2    6 1
     6    2    3 1
     7    3    4 2
     8    3    7 1
     9    4    5 1
    10    4   22 1
    11    5    6 2
    12    5   23 1
    13    7    8 2
    14    7    9 am
    15    9   10 1
    16    9   24 1
    17   10   11 2
    18   11   12 1
    19   11   25 1
    20   12   17 ar
    21   12   13 ar
    22   13   14 ar
    23   13   26 1
    24   14   15 ar
    25   14   27 1
    26   15   16 ar
    27   15   28 1
    28   16   17 ar
    29   16   18 1
    30   17   29 1
