@<TRIPOS>MOLECULE
ZINC20055482
   49    50     0     0     0
SMALL
USER_CHARGES
2-[[(1R,2R,3S)-2,3-dimethylcyclohexyl]amino]-1-(4-methylpiperazin-1-yl)ethanone
@<TRIPOS>ATOM
      1 C1          4.3911    8.4344    5.3850 C.3       1 <0>        -0.1580
      2 C2          4.1056    7.8172    4.0145 C.3       1 <0>        -0.0791
      3 H1          3.1423    8.1913    3.6375 H         1 <0>         0.0814
      4 C3          5.2195    8.2031    3.0392 C.3       1 <0>        -0.1282
      5 C4          4.9340    7.5858    1.6687 C.3       1 <0>        -0.1177
      6 C5          4.8745    6.0625    1.7979 C.3       1 <0>        -0.1405
      7 C6          3.7605    5.6765    2.7731 C.3       1 <0>         0.0405
      8 H2          2.7832    6.0109    2.3950 H         1 <0>         0.1339
      9 C7          4.0460    6.2938    4.1436 C.3       1 <0>        -0.1043
     10 H3          5.0093    5.9198    4.5206 H         1 <0>         0.0986
     11 C8          2.9321    5.9078    5.1189 C.3       1 <0>        -0.1734
     12 N1          3.7034    4.2139    2.8972 N.4       1 <0>        -0.5312
     13 C9          2.8847    3.6265    1.8281 C.3       1 <0>        -0.0276
     14 C10         2.8495    2.1284    1.9880 C.2       1 <0>         0.4995
     15 O1          3.4475    1.6019    2.9024 O.2       1 <0>        -0.5324
     16 N2          2.1535    1.3737    1.1148 N.am      1 <0>        -0.5893
     17 C11         1.4210    1.9919   -0.0008 C.3       1 <0>         0.0988
     18 C12        -0.0178    1.4648    0.0101 C.3       1 <0>         0.0355
     19 N3          0.0021   -0.0041    0.0020 N.3       1 <0>        -0.5421
     20 C13         0.6401   -0.5350    1.2140 C.3       1 <0>         0.0366
     21 C14         2.1059   -0.0899    1.2524 C.3       1 <0>         0.1106
     22 C15        -1.3527   -0.5480   -0.1611 C.3       1 <0>         0.0199
     23 H4          4.4339    9.5296    5.2921 H         1 <0>         0.0676
     24 H5          5.3544    8.0604    5.7621 H         1 <0>         0.0611
     25 H6          3.5902    8.1569    6.0861 H         1 <0>         0.0639
     26 H7          5.2623    9.2983    2.9463 H         1 <0>         0.0806
     27 H8          6.1828    7.8292    3.4162 H         1 <0>         0.0718
     28 H9          3.9707    7.9597    1.2916 H         1 <0>         0.0745
     29 H10         5.7348    7.8633    0.9675 H         1 <0>         0.0860
     30 H11         4.6693    5.6187    0.8125 H         1 <0>         0.0851
     31 H12         5.8378    5.6886    2.1750 H         1 <0>         0.0902
     32 H13         2.8893    4.8126    5.2117 H         1 <0>         0.0515
     33 H14         1.9688    6.2818    4.7419 H         1 <0>         0.0736
     34 H15         3.1375    6.3515    6.1043 H         1 <0>         0.0927
     35 H16         4.7205    3.8003    2.8303 H         1 <0>         0.4537
     36 H17         1.8615    4.0259    1.8884 H         1 <0>         0.1555
     37 H18         3.3206    3.8808    0.8507 H         1 <0>         0.1576
     38 H19         1.4211    3.0851    0.1215 H         1 <0>         0.0878
     39 H20         1.9097    1.7292   -0.9507 H         1 <0>         0.0973
     40 H21        -0.5318    1.8207    0.9151 H         1 <0>         0.0420
     41 H22        -0.5490    1.8304   -0.8810 H         1 <0>         0.0998
     42 H23         0.1160   -0.1520    2.1020 H         1 <0>         0.0424
     43 H24         0.5894   -1.6338    1.2038 H         1 <0>         0.1004
     44 H25         2.6609   -0.5543    0.4239 H         1 <0>         0.0914
     45 H26         2.5622   -0.3833    2.2093 H         1 <0>         0.1055
     46 H27        -1.3087   -1.6471   -0.1637 H         1 <0>         0.0780
     47 H28        -1.7771   -0.1957   -1.1128 H         1 <0>         0.0775
     48 H29        -1.9868   -0.2084    0.6711 H         1 <0>         0.0308
     49 H30         3.2614    3.9452    3.8680 H         1 <0>         0.4503
@<TRIPOS>BOND
     1    1    2 1
     2    1   23 1
     3    1   24 1
     4    1   25 1
     5    2    3 1
     6    2    9 1
     7    2    4 1
     8    4    5 1
     9    4   26 1
    10    4   27 1
    11    5    6 1
    12    5   28 1
    13    5   29 1
    14    6    7 1
    15    6   30 1
    16    6   31 1
    17    7    8 1
    18    7    9 1
    19    7   12 1
    20    9   10 1
    21    9   11 1
    22   11   32 1
    23   11   33 1
    24   11   34 1
    25   12   13 1
    26   12   35 1
    27   12   49 1
    28   13   14 1
    29   13   36 1
    30   13   37 1
    31   14   15 2
    32   14   16 am
    33   16   21 1
    34   16   17 1
    35   17   18 1
    36   17   38 1
    37   17   39 1
    38   18   19 1
    39   18   40 1
    40   18   41 1
    41   19   20 1
    42   19   22 1
    43   20   21 1
    44   20   42 1
    45   20   43 1
    46   21   44 1
    47   21   45 1
    48   22   46 1
    49   22   47 1
    50   22   48 1
