@<TRIPOS>MOLECULE
ZINC63339473
   43    46     0     0     0
SMALL
USER_CHARGES

@<TRIPOS>ATOM
      1 C1         -0.0163    1.3482    0.0095 C.ar      1 <0>        -0.1489
      2 C2          1.1658    2.1014    0.0022 C.ar      1 <0>         0.0553
      3 C3          2.3912    1.5352   -0.0125 C.ar      1 <0>        -0.2097
      4 C4          2.5288    0.1198   -0.0218 C.ar      1 <0>         0.3281
      5 N1          3.5868   -0.6543   -0.0369 N.pl3     1 <0>        -0.5842
      6 C5          3.1432   -2.0528   -0.0408 C.3       1 <0>         0.0605
      7 C6          1.6315   -2.0084   -0.0255 C.2       1 <0>         0.0678
      8 C7          1.2951   -0.6984   -0.0144 C.ar      1 <0>        -0.1649
      9 C8          0.0021   -0.0041    0.0020 C.ar      1 <0>        -0.0141
     10 C9          0.6905   -3.1856   -0.0239 C.3       1 <0>        -0.1050
     11 C10         0.4565   -3.6534   -1.4617 C.3       1 <0>         0.1267
     12 N2         -0.4583   -4.7977   -1.4602 N.am      1 <0>        -0.7313
     13 C11        -0.8107   -5.3803   -2.6233 C.2       1 <0>         0.5306
     14 O1         -0.3706   -4.9572   -3.6712 O.2       1 <0>        -0.4947
     15 C12        -1.7517   -6.5574   -2.6217 C.3       1 <0>         0.0343
     16 H1         -2.6704   -6.2927   -2.0981 H         1 <0>         0.1145
     17 C13        -1.0852   -7.7518   -1.9258 C.3       1 <0>         0.0354
     18 O2         -1.9985   -8.8540   -1.9543 O.3       1 <0>        -0.2976
     19 C14        -2.6126   -9.1087   -3.1420 C.ar      1 <0>         0.0423
     20 C15        -3.2121  -10.3425   -3.3475 C.ar      1 <0>        -0.1086
     21 C16        -3.8423  -10.6147   -4.5469 C.ar      1 <0>        -0.1098
     22 C17        -3.8769   -9.6586   -5.5449 C.ar      1 <0>        -0.1089
     23 C18        -3.2803   -8.4279   -5.3471 C.ar      1 <0>        -0.1076
     24 C19        -2.6451   -8.1486   -4.1462 C.ar      1 <0>         0.0471
     25 O3         -2.0555   -6.9345   -3.9690 O.3       1 <0>        -0.2802
     26 H2         -0.9665    1.8612    0.0259 H         1 <0>         0.1586
     27 H3          1.0933    3.1789    0.0083 H         1 <0>         0.1617
     28 H4          3.2717    2.1606   -0.0175 H         1 <0>         0.1612
     29 H5          3.4952   -2.5561   -0.9413 H         1 <0>         0.1750
     30 H6          3.5129   -2.5667    0.8465 H         1 <0>         0.1754
     31 H7         -0.9210   -0.5647    0.0081 H         1 <0>         0.1609
     32 H8          1.1268   -3.9987    0.5563 H         1 <0>         0.1207
     33 H9         -0.2596   -2.8905    0.4214 H         1 <0>         0.1177
     34 H10         0.0203   -2.8403   -2.0419 H         1 <0>         0.0829
     35 H11         1.4067   -3.9484   -1.9070 H         1 <0>         0.0821
     36 H12        -0.8103   -5.1361   -0.6220 H         1 <0>         0.4085
     37 H13        -0.1692   -8.0197   -2.4523 H         1 <0>         0.0849
     38 H14        -0.8536   -7.4929   -0.8926 H         1 <0>         0.1247
     39 H15        -3.1860  -11.0912   -2.5697 H         1 <0>         0.1384
     40 H16        -4.3083  -11.5761   -4.7049 H         1 <0>         0.1375
     41 H17        -4.3708   -9.8741   -6.4809 H         1 <0>         0.1377
     42 H18        -3.3088   -7.6828   -6.1284 H         1 <0>         0.1381
     43 H19         4.5087   -0.3528   -0.0446 H         1 <0>         0.4566
@<TRIPOS>BOND
     1    1    9 ar
     2    1    2 ar
     3    1   26 1
     4    2    3 ar
     5    2   27 1
     6    3    4 ar
     7    3   28 1
     8    4    8 ar
     9    4    5 2
    10    5    6 1
    11    5   43 1
    12    6    7 1
    13    6   29 1
    14    6   30 1
    15    7    8 2
    16    7   10 1
    17    8    9 ar
    18    9   31 1
    19   10   11 1
    20   10   32 1
    21   10   33 1
    22   11   12 1
    23   11   34 1
    24   11   35 1
    25   12   13 am
    26   12   36 1
    27   13   14 2
    28   13   15 1
    29   15   16 1
    30   15   25 1
    31   15   17 1
    32   17   18 1
    33   17   37 1
    34   17   38 1
    35   18   19 1
    36   19   24 ar
    37   19   20 ar
    38   20   21 ar
    39   20   39 1
    40   21   22 ar
    41   21   40 1
    42   22   23 ar
    43   22   41 1
    44   23   24 ar
    45   23   42 1
    46   24   25 1
