@<TRIPOS>MOLECULE
ZINC39633898
   55    57     0     0     0
SMALL
USER_CHARGES

@<TRIPOS>ATOM
      1 C1         -0.0759    1.2435    0.6561 C.3       1 <0>        -0.1545
      2 C2         -0.0481   -0.2796    0.5139 C.3       1 <0>        -0.1257
      3 C3          0.6802   -0.6580   -0.7773 C.3       1 <0>        -0.1011
      4 C4          0.7081   -2.1811   -0.9196 C.3       1 <0>        -0.1064
      5 H1         -0.3088   -2.5698   -0.8642 H         1 <0>         0.1030
      6 C5          1.5465   -2.7836    0.2096 C.3       1 <0>        -0.1519
      7 C6          1.3154   -2.5505   -2.2483 C.2       1 <0>         0.5514
      8 O1          1.6892   -1.6812   -3.0069 O.2       1 <0>        -0.5315
      9 N1          1.4432   -3.8470   -2.5938 N.am      1 <0>        -0.6185
     10 C7          1.0426   -5.0394   -1.8104 C.3       1 <0>         0.1150
     11 C8          0.4617   -6.0168   -2.8567 C.3       1 <0>        -0.1161
     12 H2          0.7358   -7.0428   -2.6110 H         1 <0>         0.1172
     13 C9          1.1058   -5.5948   -4.1880 C.3       1 <0>        -0.0724
     14 C10         2.0104   -4.4021   -3.8460 C.3       1 <0>         0.1054
     15 C11         0.0311   -5.1658   -5.1824 C.3       1 <0>        -0.1463
     16 C12         0.6913   -4.8054   -6.5162 C.3       1 <0>        -0.0089
     17 N2          1.4263   -5.9674   -7.0302 N.4       1 <0>        -0.5043
     18 C13         2.5173   -6.3162   -6.1122 C.3       1 <0>        -0.0098
     19 C14         1.9344   -6.7403   -4.7612 C.3       1 <0>        -0.1337
     20 C15        -1.0371   -5.8782   -2.9290 C.2       1 <0>         0.5201
     21 O2         -1.5595   -4.8101   -2.6901 O.2       1 <0>        -0.5155
     22 N3         -1.7971   -6.9411   -3.2593 N.am      1 <0>        -0.7009
     23 C16        -3.2542   -6.8063   -3.3296 C.3       1 <0>         0.0699
     24 C17        -4.0976   -7.9225   -2.7101 C.3       1 <0>        -0.1875
     25 C18        -4.0113   -7.7833   -4.2313 C.3       1 <0>        -0.1862
     26 H3          0.9449    1.6240    0.6900 H         1 <0>         0.0553
     27 H4         -0.5978    1.6786   -0.1962 H         1 <0>         0.0546
     28 H5         -0.5948    1.5131    1.5760 H         1 <0>         0.0570
     29 H6          0.4737   -0.7146    1.3663 H         1 <0>         0.0652
     30 H7         -1.0690   -0.6601    0.4801 H         1 <0>         0.0621
     31 H8          0.1584   -0.2230   -1.6297 H         1 <0>         0.0702
     32 H9          1.7011   -0.2775   -0.7435 H         1 <0>         0.0694
     33 H10         1.1072   -2.5164    1.1707 H         1 <0>         0.0758
     34 H11         1.5664   -3.8687    0.1082 H         1 <0>         0.0592
     35 H12         2.5634   -2.3948    0.1542 H         1 <0>         0.0622
     36 H13         1.9099   -5.4803   -1.3189 H         1 <0>         0.0908
     37 H14         0.2826   -4.7737   -1.0756 H         1 <0>         0.1003
     38 H15         1.9751   -3.6584   -4.6421 H         1 <0>         0.0873
     39 H16         3.0344   -4.7385   -3.6835 H         1 <0>         0.0833
     40 H17        -0.6721   -5.9848   -5.3339 H         1 <0>         0.0946
     41 H18        -0.4996   -4.2972   -4.7925 H         1 <0>         0.1235
     42 H19        -0.0756   -4.5142   -7.2340 H         1 <0>         0.1385
     43 H20         1.3823   -3.9757   -6.3669 H         1 <0>         0.1345
     44 H21         0.7966   -6.7512   -7.1153 H         1 <0>         0.4273
     45 H22         3.0962   -7.1388   -6.5322 H         1 <0>         0.1402
     46 H23         3.1650   -5.4507   -5.9726 H         1 <0>         0.1331
     47 H24         2.7457   -6.9817   -4.0745 H         1 <0>         0.1220
     48 H25         1.2996   -7.6159   -4.8975 H         1 <0>         0.0968
     49 H26        -1.3792   -7.7954   -3.4504 H         1 <0>         0.4005
     50 H27        -3.6360   -5.7879   -3.2584 H         1 <0>         0.1402
     51 H28        -3.5683   -8.7571   -2.2502 H         1 <0>         0.1000
     52 H29        -5.0346   -7.6385   -2.2311 H         1 <0>         0.1075
     53 H30        -4.8915   -7.4078   -4.7531 H         1 <0>         0.1072
     54 H31        -3.4253   -8.5264   -4.7722 H         1 <0>         0.0964
     55 H32         1.8093   -5.7471   -7.9373 H         1 <0>         0.4344
@<TRIPOS>BOND
     1    1    2 1
     2    1   26 1
     3    1   27 1
     4    1   28 1
     5    2    3 1
     6    2   29 1
     7    2   30 1
     8    3    4 1
     9    3   31 1
    10    3   32 1
    11    4    5 1
    12    4    6 1
    13    4    7 1
    14    6   33 1
    15    6   34 1
    16    6   35 1
    17    7    8 2
    18    7    9 am
    19    9   14 1
    20    9   10 1
    21   10   11 1
    22   10   36 1
    23   10   37 1
    24   11   12 1
    25   11   13 1
    26   11   20 1
    27   13   19 1
    28   13   14 1
    29   13   15 1
    30   14   38 1
    31   14   39 1
    32   15   16 1
    33   15   40 1
    34   15   41 1
    35   16   17 1
    36   16   42 1
    37   16   43 1
    38   17   18 1
    39   17   44 1
    40   17   55 1
    41   18   19 1
    42   18   45 1
    43   18   46 1
    44   19   47 1
    45   19   48 1
    46   20   21 2
    47   20   22 am
    48   22   23 1
    49   22   49 1
    50   23   25 1
    51   23   24 1
    52   23   50 1
    53   24   25 1
    54   24   51 1
    55   24   52 1
    56   25   53 1
    57   25   54 1
