@<TRIPOS>MOLECULE
ZINC65713898
   44    46     0     0     0
SMALL
USER_CHARGES

@<TRIPOS>ATOM
      1 C1         -0.0187    1.5258    0.0104 C.3       1 <0>        -0.1486
      2 C2          0.0021   -0.0041    0.0020 C.3       1 <0>        -0.1001
      3 C3         -1.4333   -0.5336    0.0129 C.3       1 <0>        -0.1153
      4 C4         -1.4126   -2.0635    0.0045 C.3       1 <0>        -0.1229
      5 C5         -0.6726   -2.5703    1.2440 C.3       1 <0>        -0.1174
      6 C6          0.7628   -2.0407    1.2331 C.3       1 <0>        -0.1321
      7 C7          0.7421   -0.5109    1.2415 C.3       1 <0>         0.1526
      8 N1          0.0564   -0.0384    2.4469 N.am      1 <0>        -0.7160
      9 C8          0.7380    0.0932    3.6021 C.2       1 <0>         0.4912
     10 O1          1.9190   -0.1795    3.6438 O.2       1 <0>        -0.5154
     11 C9          0.0326    0.5792    4.8420 C.3       1 <0>         0.0860
     12 N2          0.9838    0.6352    5.9547 N.pl3     1 <0>        -0.4611
     13 C10         1.1750   -0.3580    6.8763 C.2       1 <0>         0.0645
     14 C11         2.1168    0.0113    7.7586 C.2       1 <0>        -0.1783
     15 C12         2.5657    1.3506    7.3705 C.ar      1 <0>        -0.1127
     16 C13         1.8230    1.6928    6.2255 C.ar      1 <0>         0.1472
     17 C14         2.0372    2.9253    5.6176 C.ar      1 <0>        -0.1169
     18 C15         2.9724    3.7923    6.1394 C.ar      1 <0>        -0.0493
     19 C16         3.7047    3.4488    7.2671 C.ar      1 <0>        -0.0737
     20 C17         3.5051    2.2460    7.8847 C.ar      1 <0>         0.0083
     21 N3          4.7045    4.3957    7.8099 N.pl3     1 <0>         0.0403
     22 O2          4.8806    5.4636    7.2711 O.2       1 <0>        -0.1642
     23 O3          5.3451    4.1013    8.7921 O.3       1 <0>        -0.1666
     24 H1          1.0039    1.9031    0.0027 H         1 <0>         0.0571
     25 H2         -0.5459    1.8868   -0.8726 H         1 <0>         0.0600
     26 H3         -0.5289    1.8773    0.9072 H         1 <0>         0.0535
     27 H4          0.5123   -0.3556   -0.8948 H         1 <0>         0.0878
     28 H5         -1.9435   -0.1821    0.9097 H         1 <0>         0.0585
     29 H6         -1.9605   -0.1726   -0.8702 H         1 <0>         0.0690
     30 H7         -2.4352   -2.4408    0.0122 H         1 <0>         0.0643
     31 H8         -0.9024   -2.4150   -0.8923 H         1 <0>         0.0651
     32 H9         -1.1828   -2.2188    2.1408 H         1 <0>         0.0590
     33 H10        -0.6578   -3.6602    1.2380 H         1 <0>         0.0634
     34 H11         1.2900   -2.4018    2.1162 H         1 <0>         0.0673
     35 H12         1.2730   -2.3923    0.3363 H         1 <0>         0.0742
     36 H13         1.7647   -0.1336    1.2338 H         1 <0>         0.0893
     37 H14        -0.8882    0.1796    2.4135 H         1 <0>         0.4004
     38 H15        -0.3749    1.5740    4.6618 H         1 <0>         0.1200
     39 H16        -0.7779   -0.1058    5.0910 H         1 <0>         0.1269
     40 H17         0.6463   -1.2996    6.8916 H         1 <0>         0.1775
     41 H18         2.4753   -0.5689    8.5960 H         1 <0>         0.1598
     42 H19         1.4726    3.2017    4.7394 H         1 <0>         0.1380
     43 H20         3.1375    4.7488    5.6657 H         1 <0>         0.1547
     44 H21         4.0796    1.9848    8.7611 H         1 <0>         0.1547
@<TRIPOS>BOND
     1    1    2 1
     2    1   24 1
     3    1   25 1
     4    1   26 1
     5    2    7 1
     6    2    3 1
     7    2   27 1
     8    3    4 1
     9    3   28 1
    10    3   29 1
    11    4    5 1
    12    4   30 1
    13    4   31 1
    14    5    6 1
    15    5   32 1
    16    5   33 1
    17    6    7 1
    18    6   34 1
    19    6   35 1
    20    7    8 1
    21    7   36 1
    22    8    9 am
    23    8   37 1
    24    9   10 2
    25    9   11 1
    26   11   12 1
    27   11   38 1
    28   11   39 1
    29   12   16 1
    30   12   13 1
    31   13   14 2
    32   13   40 1
    33   14   15 1
    34   14   41 1
    35   15   20 ar
    36   15   16 ar
    37   16   17 ar
    38   17   18 ar
    39   17   42 1
    40   18   19 ar
    41   18   43 1
    42   19   20 ar
    43   19   21 1
    44   20   44 1
    45   21   22 2
    46   21   23 1
