@<TRIPOS>MOLECULE
ZINC16265946
   70    73     0     0     0
SMALL
USER_CHARGES

@<TRIPOS>ATOM
      1 C1         -0.8281    0.4453   -0.2337 C.3       1 <0>        -0.0986
      2 C2         -0.5380   -1.0345   -0.2599 C.2       1 <0>         0.1540
      3 C3         -0.0725   -1.7925   -1.3362 C.2       1 <0>        -0.2865
      4 C4         -0.0906   -3.1410   -0.9122 C.2       1 <0>         0.3824
      5 N1         -0.3922   -3.1478    0.3847 N.pl3     1 <0>        -0.4771
      6 H1         -0.4108   -3.9292    0.9590 H         1 <0>         0.4389
      7 N2         -0.6928   -1.8338    0.7696 N.2       1 <0>        -0.3088
      8 N3          0.0968   -4.1652   -1.8160 N.pl3     1 <0>        -0.7027
      9 C5         -0.1442   -3.8577   -3.2324 C.3       1 <0>         0.2788
     10 H2          0.3997   -4.5746   -3.8488 H         1 <0>         0.1031
     11 C6          0.3098   -2.4618   -3.5830 C.2       1 <0>        -0.2851
     12 C7          0.4101   -1.4854   -2.6348 C.2       1 <0>         0.1374
     13 C8          1.0665   -0.1650   -2.9131 C.3       1 <0>        -0.0589
     14 H3          0.3183    0.6264   -2.9258 H         1 <0>         0.1071
     15 C9          1.8384   -0.1717   -4.2322 C.3       1 <0>        -0.1195
     16 C10         1.0119   -0.8020   -5.3484 C.3       1 <0>        -0.1256
     17 H4          1.6198   -0.8756   -6.2541 H         1 <0>         0.0948
     18 C11         0.5914   -2.1827   -4.9273 C.2       1 <0>         0.4157
     19 O1          0.5011   -3.0594   -5.7615 O.2       1 <0>        -0.4779
     20 C12        -0.2230    0.0492   -5.6422 C.3       1 <0>        -0.0485
     21 C13         0.1646    1.5293   -5.6366 C.3       1 <0>        -0.1458
     22 C14        -0.7860   -0.3254   -7.0147 C.3       1 <0>        -0.1438
     23 C15        -1.2841   -0.2041   -4.5693 C.3       1 <0>        -0.1660
     24 C16         2.0809    0.1323   -1.7938 C.3       1 <0>        -0.0556
     25 C17         3.4976    0.1144   -2.3715 C.3       1 <0>        -0.1464
     26 C18         1.7914    1.5105   -1.1959 C.3       1 <0>        -0.1717
     27 C19         1.9620   -0.9326   -0.7017 C.3       1 <0>        -0.1728
     28 C20        -1.6182   -3.9869   -3.5180 C.ar      1 <0>        -0.1585
     29 C21        -2.5421   -3.5283   -2.5970 C.ar      1 <0>        -0.0508
     30 C22        -3.8937   -3.6452   -2.8556 C.ar      1 <0>        -0.1986
     31 C23        -4.3247   -4.2241   -4.0425 C.ar      1 <0>         0.2173
     32 C24        -3.3938   -4.6837   -4.9655 C.ar      1 <0>        -0.1990
     33 C25        -2.0437   -4.5586   -4.7031 C.ar      1 <0>        -0.0483
     34 N4         -5.6909   -4.3443   -4.3070 N.pl3     1 <0>        -0.6391
     35 C26        -6.6711   -3.8595   -3.3322 C.3       1 <0>         0.0967
     36 C27        -6.1435   -4.9551   -5.5593 C.3       1 <0>         0.0926
     37 H5         -0.0007    0.9694    0.2447 H         1 <0>         0.0977
     38 H6         -0.9480    0.8101   -1.2538 H         1 <0>         0.0815
     39 H7         -1.7452    0.6259    0.3270 H         1 <0>         0.0808
     40 H8          0.3752   -5.0503   -1.5295 H         1 <0>         0.4106
     41 H9          2.0950    0.8566   -4.5053 H         1 <0>         0.0855
     42 H10         2.7673   -0.7358   -4.1037 H         1 <0>         0.0820
     43 H11         0.9205    1.7097   -6.4009 H         1 <0>         0.0567
     44 H12        -0.7161    2.1364   -5.8461 H         1 <0>         0.0569
     45 H13         0.5657    1.7962   -4.6588 H         1 <0>         0.0620
     46 H14        -1.0621   -1.3798   -7.0186 H         1 <0>         0.0593
     47 H15        -1.6667    0.2817   -7.2242 H         1 <0>         0.0547
     48 H16        -0.0301   -0.1449   -7.7790 H         1 <0>         0.0550
     49 H17        -0.8790    0.0516   -3.5902 H         1 <0>         0.0723
     50 H18        -2.1602    0.4118   -4.7723 H         1 <0>         0.0521
     51 H19        -1.5688   -1.2562   -4.5812 H         1 <0>         0.0629
     52 H20         3.5534    0.7986   -3.2181 H         1 <0>         0.0633
     53 H21         4.2066    0.4264   -1.6047 H         1 <0>         0.0527
     54 H22         3.7419   -0.8948   -2.7032 H         1 <0>         0.0564
     55 H23         0.7821    1.5233   -0.7844 H         1 <0>         0.0799
     56 H24         2.5096    1.7210   -0.4034 H         1 <0>         0.0566
     57 H25         1.8761    2.2692   -1.9739 H         1 <0>         0.0562
     58 H26         1.6976   -1.8886   -1.1536 H         1 <0>         0.0811
     59 H27         2.9152   -1.0278   -0.1816 H         1 <0>         0.0375
     60 H28         1.1884   -0.6401    0.0083 H         1 <0>         0.0766
     61 H29        -2.2064   -3.0787   -1.6742 H         1 <0>         0.1149
     62 H30        -4.6148   -3.2872   -2.1357 H         1 <0>         0.1156
     63 H31        -3.7256   -5.1347   -5.8891 H         1 <0>         0.1206
     64 H32        -1.3195   -4.9118   -5.4222 H         1 <0>         0.1256
     65 H33        -6.5268   -2.7909   -3.1725 H         1 <0>         0.0531
     66 H34        -7.6779   -4.0377   -3.7100 H         1 <0>         0.0725
     67 H35        -6.5380   -4.3891   -2.3889 H         1 <0>         0.0522
     68 H36        -6.2623   -6.0293   -5.4174 H         1 <0>         0.0473
     69 H37        -7.0990   -4.5194   -5.8515 H         1 <0>         0.0659
     70 H38        -5.4062   -4.7711   -6.3406 H         1 <0>         0.0690
@<TRIPOS>BOND
     1    1    2 1
     2    1   37 1
     3    1   38 1
     4    1   39 1
     5    2    7 2
     6    2    3 1
     7    3   12 1
     8    3    4 2
     9    4    5 1
    10    4    8 1
    11    5    6 1
    12    5    7 1
    13    8    9 1
    14    8   40 1
    15    9   10 1
    16    9   11 1
    17    9   28 1
    18   11   18 1
    19   11   12 2
    20   12   13 1
    21   13   14 1
    22   13   15 1
    23   13   24 1
    24   15   16 1
    25   15   41 1
    26   15   42 1
    27   16   17 1
    28   16   18 1
    29   16   20 1
    30   18   19 2
    31   20   21 1
    32   20   22 1
    33   20   23 1
    34   21   43 1
    35   21   44 1
    36   21   45 1
    37   22   46 1
    38   22   47 1
    39   22   48 1
    40   23   49 1
    41   23   50 1
    42   23   51 1
    43   24   25 1
    44   24   26 1
    45   24   27 1
    46   25   52 1
    47   25   53 1
    48   25   54 1
    49   26   55 1
    50   26   56 1
    51   26   57 1
    52   27   58 1
    53   27   59 1
    54   27   60 1
    55   28   33 ar
    56   28   29 ar
    57   29   30 ar
    58   29   61 1
    59   30   31 ar
    60   30   62 1
    61   31   32 ar
    62   31   34 1
    63   32   33 ar
    64   32   63 1
    65   33   64 1
    66   34   35 1
    67   34   36 1
    68   35   65 1
    69   35   66 1
    70   35   67 1
    71   36   68 1
    72   36   69 1
    73   36   70 1
