@<TRIPOS>MOLECULE
ZINC36851561
   41    43     0     0     0
SMALL
USER_CHARGES

@<TRIPOS>ATOM
      1 C1         -0.2979    1.2030   -0.0665 C.3       1 <0>        -0.1633
      2 C2         -0.2680   -0.3226    0.0459 C.3       1 <0>        -0.0855
      3 H1          0.1851   -0.7442   -0.8514 H         1 <0>         0.0948
      4 C3         -1.6962   -0.8512    0.1926 C.3       1 <0>        -0.1278
      5 C4         -2.3322   -0.2594    1.4520 C.3       1 <0>        -0.1194
      6 C5         -1.5101   -0.6646    2.6771 C.3       1 <0>        -0.1412
      7 C6         -0.0818   -0.1359    2.5304 C.3       1 <0>         0.0163
      8 H2         -0.1031    0.9509    2.4503 H         1 <0>         0.1470
      9 C7          0.5542   -0.7277    1.2710 C.3       1 <0>        -0.1359
     10 N1          0.7075   -0.5249    3.7067 N.4       1 <0>        -0.4939
     11 C8          0.1851    0.1614    4.8958 C.3       1 <0>        -0.0139
     12 H3         -0.8908    0.0099    4.9830 H         1 <0>         0.1920
     13 C9          0.5189    1.6663    4.8444 C.3       1 <0>        -0.1702
     14 C10         1.3838    1.8796    6.0676 C.2       1 <0>         0.5252
     15 O1          1.8687    2.9369    6.4090 O.2       1 <0>        -0.4277
     16 N2          1.5282    0.7158    6.7133 N.am      1 <0>        -0.5346
     17 C11         0.8935   -0.3203    6.1430 C.2       1 <0>         0.5148
     18 O2          0.8881   -1.4593    6.5580 O.2       1 <0>        -0.4294
     19 C12         2.3131    0.5836    7.9432 C.3       1 <0>         0.0354
     20 C13         2.6923   -0.8295    8.3908 C.3       1 <0>        -0.1758
     21 C14         1.6247   -0.0452    9.1564 C.3       1 <0>        -0.1695
     22 H4          0.7197    1.5796   -0.1710 H         1 <0>         0.0622
     23 H5         -0.8836    1.4916   -0.9393 H         1 <0>         0.0708
     24 H6         -0.7509    1.6246    0.8307 H         1 <0>         0.0566
     25 H7         -2.2819   -0.5626   -0.6802 H         1 <0>         0.0816
     26 H8         -1.6750   -1.9381    0.2727 H         1 <0>         0.0722
     27 H9         -2.3535    0.8274    1.3720 H         1 <0>         0.0792
     28 H10        -3.3497   -0.6360    1.5566 H         1 <0>         0.0871
     29 H11        -1.9632   -0.2429    3.5744 H         1 <0>         0.0864
     30 H12        -1.4888   -1.7514    2.7572 H         1 <0>         0.0925
     31 H13         0.5754   -1.8146    1.3510 H         1 <0>         0.0916
     32 H14         1.5717   -0.3511    1.1665 H         1 <0>         0.0906
     33 H15         0.6438   -1.5231    3.8393 H         1 <0>         0.4384
     34 H16         1.0727    1.9056    3.9366 H         1 <0>         0.1428
     35 H17        -0.3907    2.2634    4.9089 H         1 <0>         0.1619
     36 H18         3.0323    1.3810    8.1299 H         1 <0>         0.1566
     37 H19         2.3578   -1.6608    7.7702 H         1 <0>         0.1256
     38 H20         3.6613   -0.9619    8.8720 H         1 <0>         0.1153
     39 H21         1.8914    0.3384   10.1412 H         1 <0>         0.1183
     40 H22         0.5879   -0.3605    9.0394 H         1 <0>         0.1018
     41 H23         1.6722   -0.2653    3.5652 H         1 <0>         0.4310
@<TRIPOS>BOND
     1    1    2 1
     2    1   22 1
     3    1   23 1
     4    1   24 1
     5    2    3 1
     6    2    9 1
     7    2    4 1
     8    4    5 1
     9    4   25 1
    10    4   26 1
    11    5    6 1
    12    5   27 1
    13    5   28 1
    14    6    7 1
    15    6   29 1
    16    6   30 1
    17    7    8 1
    18    7    9 1
    19    7   10 1
    20    9   31 1
    21    9   32 1
    22   10   11 1
    23   10   33 1
    24   10   41 1
    25   11   12 1
    26   11   17 1
    27   11   13 1
    28   13   14 1
    29   13   34 1
    30   13   35 1
    31   14   15 2
    32   14   16 am
    33   16   17 am
    34   16   19 1
    35   17   18 2
    36   19   21 1
    37   19   20 1
    38   19   36 1
    39   20   21 1
    40   20   37 1
    41   20   38 1
    42   21   39 1
    43   21   40 1
