@<TRIPOS>MOLECULE
ZINC50360708
   34    35     0     0     0
SMALL
USER_CHARGES

@<TRIPOS>ATOM
      1 C1         -0.0184    1.5028    0.0103 C.3       1 <0>        -0.1134
      2 C2          0.0021   -0.0041    0.0020 C.2       1 <0>         0.1426
      3 C3          0.0079   -0.7958   -1.0953 C.2       1 <0>        -0.3164
      4 C4          0.0284   -2.1267   -0.6656 C.2       1 <0>         0.0443
      5 N1          0.0347   -2.1338    0.6427 N.2       1 <0>        -0.2631
      6 N2          0.0237   -0.8054    1.0876 N.pl3     1 <0>        -0.3518
      7 C5          0.0311   -0.3643    2.4845 C.3       1 <0>         0.0865
      8 C6         -0.0058   -0.3266   -2.5273 C.3       1 <0>         0.1278
      9 H1          0.6420    0.5440   -2.6306 H         1 <0>         0.1431
     10 C7         -1.4338    0.0501   -2.9269 C.3       1 <0>        -0.1823
     11 N3          0.4790   -1.4040   -3.4003 N.4       1 <0>        -0.5093
     12 C8          0.5792   -0.9088   -4.7797 C.3       1 <0>         0.0903
     13 C9          1.0765   -2.0141   -5.6753 C.2       1 <0>        -0.0811
     14 C10         0.3067   -2.8992   -6.3335 C.2       1 <0>        -0.1097
     15 C11         1.1806   -3.7504   -7.0491 C.2       1 <0>        -0.1554
     16 C12         2.4337   -3.3336   -6.7847 C.2       1 <0>         0.0483
     17 O1          2.3634   -2.2785   -5.9560 O.3       1 <0>        -0.1387
     18 Br1         4.0217   -4.0993   -7.4687 Br        1 <0>         0.1104
     19 Br2         0.6850   -5.1962   -8.1626 Br        1 <0>         0.0418
     20 H2          1.0042    1.8801    0.0026 H         1 <0>         0.0951
     21 H3         -0.5455    1.8639   -0.8728 H         1 <0>         0.0926
     22 H4         -0.5286    1.8543    0.9071 H         1 <0>         0.0865
     23 H5          0.0370   -2.9981   -1.3036 H         1 <0>         0.1817
     24 H6         -0.9946   -0.2692    2.8409 H         1 <0>         0.0889
     25 H7          0.5611   -1.0963    3.0940 H         1 <0>         0.1020
     26 H8          0.5322    0.6009    2.5581 H         1 <0>         0.0980
     27 H9         -1.4438    0.3895   -3.9627 H         1 <0>         0.0835
     28 H10        -2.0816   -0.8204   -2.8236 H         1 <0>         0.0851
     29 H11        -1.7935    0.8495   -2.2792 H         1 <0>         0.1063
     30 H12         1.3879   -1.7087   -3.0855 H         1 <0>         0.4339
     31 H13        -0.4027   -0.5796   -5.1198 H         1 <0>         0.1675
     32 H14         1.2757   -0.0712   -4.8154 H         1 <0>         0.1551
     33 H15        -0.7720   -2.9504   -6.3180 H         1 <0>         0.1812
     34 H16        -0.1658   -2.1794   -3.3673 H         1 <0>         0.4288
@<TRIPOS>BOND
     1    1    2 1
     2    1   20 1
     3    1   21 1
     4    1   22 1
     5    2    6 1
     6    2    3 2
     7    3    4 1
     8    3    8 1
     9    4    5 2
    10    4   23 1
    11    5    6 1
    12    6    7 1
    13    7   24 1
    14    7   25 1
    15    7   26 1
    16    8    9 1
    17    8   10 1
    18    8   11 1
    19   10   27 1
    20   10   28 1
    21   10   29 1
    22   11   12 1
    23   11   30 1
    24   11   34 1
    25   12   13 1
    26   12   31 1
    27   12   32 1
    28   13   17 1
    29   13   14 2
    30   14   15 1
    31   14   33 1
    32   15   16 2
    33   15   19 1
    34   16   17 1
    35   16   18 1
