@<TRIPOS>MOLECULE
ZINC66496898
   41    43     0     0     0
SMALL
USER_CHARGES

@<TRIPOS>ATOM
      1 C1         -0.2244   -1.0008    0.0253 C.1       1 <0>        -0.1799
      2 C2         -0.0792    0.1598   -0.0755 C.1       1 <0>        -0.1809
      3 C3          0.1029    1.6150   -0.2019 C.3       1 <0>         0.1485
      4 N1          1.5096    1.9561    0.0487 N.3       1 <0>        -0.5260
      5 C4          1.6560    3.3813    0.3732 C.3       1 <0>         0.0836
      6 C5          1.2064    3.6223    1.7912 C.2       1 <0>         0.2237
      7 C6          2.1222    3.8215    2.7668 C.2       1 <0>        -0.2861
      8 C7          1.6977    4.0471    4.0917 C.2       1 <0>         0.5668
      9 O1          2.5186    4.2274    4.9735 O.2       1 <0>        -0.4887
     10 N2          0.3818    4.0633    4.3803 N.am      1 <0>        -0.3632
     11 C8         -0.5369    3.8616    3.3909 C.2       1 <0>         0.3052
     12 N3         -0.1225    3.6454    2.0903 N.pl3     1 <0>        -0.6031
     13 H1         -0.7788    3.5062    1.3898 H         1 <0>         0.4285
     14 C9         -1.7722    3.9304    3.9621 C.2       1 <0>        -0.2841
     15 C10        -1.6008    4.1788    5.3249 C.2       1 <0>         0.0957
     16 N4         -0.3182    4.2586    5.5774 N.2       1 <0>        -0.2624
     17 C11         2.3527    1.5876   -1.0965 C.3       1 <0>         0.0883
     18 C12         1.7209    2.1161   -2.3859 C.3       1 <0>        -0.1572
     19 C13         2.5989    1.7323   -3.5786 C.3       1 <0>        -0.1141
     20 C14         2.7171    0.2088   -3.6557 C.3       1 <0>        -0.1220
     21 C15         3.3489   -0.3196   -2.3663 C.3       1 <0>        -0.1190
     22 C16         2.4708    0.0642   -1.1736 C.3       1 <0>        -0.1224
     23 H2         -0.3543   -2.0388    0.1155 H         1 <0>         0.2186
     24 H3         -0.1736    1.9297   -1.2082 H         1 <0>         0.0802
     25 H4         -0.5296    2.1248    0.5248 H         1 <0>         0.0822
     26 H5          2.7013    3.6722    0.2690 H         1 <0>         0.1215
     27 H6          1.0444    3.9736   -0.3075 H         1 <0>         0.0710
     28 H7          3.1760    3.8074    2.5310 H         1 <0>         0.1766
     29 H8         -2.7164    3.8139    3.4509 H         1 <0>         0.1629
     30 H9         -2.3937    4.2875    6.0500 H         1 <0>         0.2023
     31 H10         3.3442    2.0232   -0.9727 H         1 <0>         0.0906
     32 H11         0.7293    1.6805   -2.5096 H         1 <0>         0.0710
     33 H12         1.6367    3.2014   -2.3310 H         1 <0>         0.0635
     34 H13         2.1488    2.1087   -4.4972 H         1 <0>         0.0636
     35 H14         3.5905    2.1678   -3.4548 H         1 <0>         0.0644
     36 H15         1.7256   -0.2267   -3.7794 H         1 <0>         0.0607
     37 H16         3.3427   -0.0646   -4.5054 H         1 <0>         0.0633
     38 H17         3.4331   -1.4049   -2.4212 H         1 <0>         0.0649
     39 H18         4.3404    0.1159   -2.2425 H         1 <0>         0.0622
     40 H19         2.9209   -0.3123   -0.2550 H         1 <0>         0.0695
     41 H20         1.4793   -0.3714   -1.2973 H         1 <0>         0.0798
@<TRIPOS>BOND
     1    1    2 3
     2    1   23 1
     3    2    3 1
     4    3    4 1
     5    3   24 1
     6    3   25 1
     7    4    5 1
     8    4   17 1
     9    5    6 1
    10    5   26 1
    11    5   27 1
    12    6   12 1
    13    6    7 2
    14    7    8 1
    15    7   28 1
    16    8    9 2
    17    8   10 am
    18   10   16 1
    19   10   11 1
    20   11   12 1
    21   11   14 2
    22   12   13 1
    23   14   15 1
    24   14   29 1
    25   15   16 2
    26   15   30 1
    27   17   22 1
    28   17   18 1
    29   17   31 1
    30   18   19 1
    31   18   32 1
    32   18   33 1
    33   19   20 1
    34   19   34 1
    35   19   35 1
    36   20   21 1
    37   20   36 1
    38   20   37 1
    39   21   22 1
    40   21   38 1
    41   21   39 1
    42   22   40 1
    43   22   41 1
