@<TRIPOS>MOLECULE
ZINC37047925
   30    31     0     0     0
SMALL
USER_CHARGES

@<TRIPOS>ATOM
      1 C1          2.7945   -0.0179    1.8659 C.3       1 <0>        -0.0883
      2 C2          2.3876   -1.3721    1.3448 C.2       1 <0>        -0.1434
      3 C3          1.6993   -1.5247    0.1675 C.2       1 <0>        -0.0154
      4 C4          1.3636   -2.7740   -0.2440 C.2       1 <0>        -0.8734
      5 S1          1.9724   -3.7808    0.9552 S.3       1 <0>         0.2951
      6 C5          2.6905   -2.5468    2.0228 C.2       1 <0>        -0.1361
      7 C6          3.3868   -2.7188    3.2455 C.2       1 <0>         0.5440
      8 O1          3.8131   -1.7424    3.8502 O.co2     1 <0>        -0.6553
      9 O2          3.5623   -3.8437    3.6975 O.co2     1 <0>        -0.6721
     10 S2          0.4887   -3.2344   -1.7025 S.o2      1 <0>         2.7345
     11 O3         -0.0633   -4.5204   -1.4561 O.2       1 <0>        -0.9525
     12 O4         -0.3126   -2.1181   -2.0649 O.2       1 <0>        -0.9496
     13 N1          1.6096   -3.4232   -2.9068 N.pl3     1 <0>        -1.0633
     14 C7          2.3452   -2.3213   -3.3571 C.ar      1 <0>         0.1187
     15 C8          1.7433   -1.3689   -4.1688 C.ar      1 <0>        -0.0877
     16 C9          2.4699   -0.2814   -4.6123 C.ar      1 <0>        -0.1391
     17 C10         3.8006   -0.1403   -4.2472 C.ar      1 <0>         0.1120
     18 C11         4.4027   -1.0913   -3.4368 C.ar      1 <0>        -0.1372
     19 C12         3.6760   -2.1765   -2.9877 C.ar      1 <0>        -0.0902
     20 O5          4.5154    0.9309   -4.6844 O.3       1 <0>        -0.5005
     21 H1          3.7797    0.2400    1.4772 H         1 <0>         0.0615
     22 H2          2.0694    0.7288    1.5423 H         1 <0>         0.0499
     23 H3          2.8288   -0.0430    2.9551 H         1 <0>         0.0949
     24 H4          1.4279   -0.6625   -0.4235 H         1 <0>         0.1312
     25 H5          1.7562   -4.2977   -3.3001 H         1 <0>         0.4252
     26 H6          0.7073   -1.4788   -4.4535 H         1 <0>         0.1388
     27 H7          2.0020    0.4592   -5.2440 H         1 <0>         0.1347
     28 H8          5.4390   -0.9809   -3.1532 H         1 <0>         0.1348
     29 H9          4.1436   -2.9144   -2.3527 H         1 <0>         0.1357
     30 H10         4.4773    1.6964   -4.0947 H         1 <0>         0.3932
@<TRIPOS>BOND
     1    1    2 1
     2    1   21 1
     3    1   22 1
     4    1   23 1
     5    2    6 2
     6    2    3 1
     7    3    4 2
     8    3   24 1
     9    4    5 1
    10    4   10 1
    11    5    6 1
    12    6    7 1
    13    7    8 2
    14    7    9 1
    15   10   11 2
    16   10   12 2
    17   10   13 1
    18   13   14 1
    19   13   25 1
    20   14   19 ar
    21   14   15 ar
    22   15   16 ar
    23   15   26 1
    24   16   17 ar
    25   16   27 1
    26   17   18 ar
    27   17   20 1
    28   18   19 ar
    29   18   28 1
    30   19   29 1
    31   20   30 1
