@<TRIPOS>MOLECULE
ZINC12347573
   67    71     0     0     0
SMALL
USER_CHARGES
(2S)-N-(4-methoxy-7-methyl-1,3-benzothiazol-2-yl)-1-(p-tolylsulfonyl)-N-[[(2R)-tetrahydrofuran-2-yl]methyl]pyrrolidine-2-carboxamide
@<TRIPOS>ATOM
      1 C1         -2.8026   -4.3892    3.4417 C.3       1 <0>        -0.1247
      2 C2         -2.5391   -3.1596    2.6112 C.ar      1 <0>        -0.0256
      3 C3         -3.1614   -1.9662    2.9265 C.ar      1 <0>        -0.1471
      4 C4         -2.9194   -0.8382    2.1651 C.ar      1 <0>        -0.0174
      5 C5         -2.0553   -0.9036    1.0880 C.ar      1 <0>        -0.6790
      6 C6         -1.4373   -2.0984    0.7693 C.ar      1 <0>         0.0197
      7 C7         -1.6753   -3.2251    1.5339 C.ar      1 <0>        -0.1424
      8 S1         -1.7472    0.5341    0.1171 S.o2      1 <0>         2.6983
      9 O1         -2.9393    1.3070    0.1462 O.2       1 <0>        -0.9488
     10 O2         -1.1591    0.0862   -1.0965 O.2       1 <0>        -0.9516
     11 N1         -0.5903    1.4186    0.9055 N.pl3     1 <0>        -0.9968
     12 C8         -0.8237    2.3002    2.0587 C.3       1 <0>         0.1151
     13 C9          0.5424    2.8898    2.4686 C.3       1 <0>        -0.1249
     14 C10         1.5520    1.8692    1.8801 C.3       1 <0>        -0.1156
     15 C11         0.8440    1.4534    0.5665 C.3       1 <0>         0.1483
     16 H1          1.0330    2.1888   -0.2155 H         1 <0>         0.1083
     17 C12         1.3123    0.0900    0.1272 C.2       1 <0>         0.5201
     18 O3          0.9486   -0.8987    0.7278 O.2       1 <0>        -0.4897
     19 N2          2.1353   -0.0304   -0.9333 N.am      1 <0>        -0.4857
     20 C13         2.6453    1.1677   -1.6046 C.3       1 <0>         0.1026
     21 C14         4.0377    1.5008   -1.0652 C.3       1 <0>         0.0602
     22 H2          4.6855    0.6281   -1.1477 H         1 <0>         0.0817
     23 C15         4.6395    2.6769   -1.8586 C.3       1 <0>        -0.1466
     24 C16         4.9161    3.7571   -0.7846 C.3       1 <0>        -0.1549
     25 C17         4.9629    2.9165    0.5168 C.3       1 <0>         0.0452
     26 O4          3.9437    1.9154    0.3080 O.3       1 <0>        -0.3724
     27 C18         2.4992   -1.2880   -1.3889 C.2       1 <0>         0.3587
     28 N3          3.2762   -1.6050   -2.3974 N.2       1 <0>        -0.5221
     29 C19         3.5496   -2.8863   -2.7288 C.ar      1 <0>         0.0806
     30 C20         4.3700   -3.3619   -3.7833 C.ar      1 <0>         0.1755
     31 C21         4.5384   -4.7113   -3.9858 C.ar      1 <0>        -0.2042
     32 C22         3.9168   -5.6482   -3.1729 C.ar      1 <0>        -0.0633
     33 C23         3.1098   -5.2173   -2.1365 C.ar      1 <0>        -0.0648
     34 C24         2.9353   -3.8709   -1.9247 C.ar      1 <0>        -0.1456
     35 S2          2.0231   -2.8905   -0.7569 S.3       1 <0>         0.0970
     36 C25         2.4264   -6.2194   -1.2422 C.3       1 <0>        -0.1120
     37 O5          4.9961   -2.4751   -4.6016 O.3       1 <0>        -0.3005
     38 C26         5.8084   -3.0169   -5.6450 C.3       1 <0>         0.0226
     39 H3         -3.6514   -4.9327    3.0268 H         1 <0>         0.0790
     40 H4         -1.9209   -5.0300    3.4319 H         1 <0>         0.0725
     41 H5         -3.0259   -4.0942    4.4669 H         1 <0>         0.0722
     42 H6         -3.8365   -1.9151    3.7680 H         1 <0>         0.1312
     43 H7         -3.4056    0.0942    2.4114 H         1 <0>         0.1339
     44 H8         -0.7657   -2.1505   -0.0748 H         1 <0>         0.1386
     45 H9         -1.1894   -4.1576    1.2874 H         1 <0>         0.1299
     46 H10        -1.2427    1.7263    2.8852 H         1 <0>         0.0715
     47 H11        -1.5062    3.1037    1.7819 H         1 <0>         0.0831
     48 H12         0.6314    2.9384    3.5539 H         1 <0>         0.0894
     49 H13         0.6883    3.8753    2.0265 H         1 <0>         0.0832
     50 H14         1.6756    1.0142    2.5449 H         1 <0>         0.0849
     51 H15         2.5115    2.3434    1.6737 H         1 <0>         0.1135
     52 H16         2.7053    0.9853   -2.6775 H         1 <0>         0.1149
     53 H17         1.9726    2.0043   -1.4153 H         1 <0>         0.1079
     54 H18         5.5677    2.3747   -2.3436 H         1 <0>         0.0826
     55 H19         3.9263    3.0438   -2.5967 H         1 <0>         0.0834
     56 H20         5.8721    4.2488   -0.9647 H         1 <0>         0.0824
     57 H21         4.1063    4.4857   -0.7482 H         1 <0>         0.0802
     58 H22         5.9405    2.4497    0.6373 H         1 <0>         0.0620
     59 H23         4.7250    3.5352    1.3821 H         1 <0>         0.0964
     60 H24         5.1686   -5.0494   -4.7950 H         1 <0>         0.1389
     61 H25         4.0621   -6.7039   -3.3481 H         1 <0>         0.1398
     62 H26         1.4486   -6.4675   -1.6551 H         1 <0>         0.0744
     63 H27         3.0334   -7.1224   -1.1778 H         1 <0>         0.0736
     64 H28         2.3028   -5.7930   -0.2467 H         1 <0>         0.0651
     65 H29         6.2485   -2.2038   -6.2222 H         1 <0>         0.1023
     66 H30         6.6018   -3.6243   -5.2095 H         1 <0>         0.0573
     67 H31         5.1944   -3.6359   -6.2991 H         1 <0>         0.0577
@<TRIPOS>BOND
     1    1    2 1
     2    1   39 1
     3    1   40 1
     4    1   41 1
     5    2    7 ar
     6    2    3 ar
     7    3    4 ar
     8    3   42 1
     9    4    5 ar
    10    4   43 1
    11    5    6 ar
    12    5    8 1
    13    6    7 ar
    14    6   44 1
    15    7   45 1
    16    8    9 2
    17    8   10 2
    18    8   11 1
    19   11   15 1
    20   11   12 1
    21   12   13 1
    22   12   46 1
    23   12   47 1
    24   13   14 1
    25   13   48 1
    26   13   49 1
    27   14   15 1
    28   14   50 1
    29   14   51 1
    30   15   16 1
    31   15   17 1
    32   17   18 2
    33   17   19 am
    34   19   20 1
    35   19   27 1
    36   20   21 1
    37   20   52 1
    38   20   53 1
    39   21   22 1
    40   21   26 1
    41   21   23 1
    42   23   24 1
    43   23   54 1
    44   23   55 1
    45   24   25 1
    46   24   56 1
    47   24   57 1
    48   25   26 1
    49   25   58 1
    50   25   59 1
    51   27   35 1
    52   27   28 2
    53   28   29 1
    54   29   34 ar
    55   29   30 ar
    56   30   31 ar
    57   30   37 1
    58   31   32 ar
    59   31   60 1
    60   32   33 ar
    61   32   61 1
    62   33   34 ar
    63   33   36 1
    64   34   35 1
    65   36   62 1
    66   36   63 1
    67   36   64 1
    68   37   38 1
    69   38   65 1
    70   38   66 1
    71   38   67 1
