@<TRIPOS>MOLECULE
ZINC47636614
   32    33     0     0     0
SMALL
USER_CHARGES

@<TRIPOS>ATOM
      1 C1         -0.0479    1.4097    0.0102 C.ar      1 <0>         0.0121
      2 C2          1.1336    2.1273    0.0033 C.ar      1 <0>        -0.1599
      3 C3          2.3471    1.4618   -0.0098 C.ar      1 <0>         0.1707
      4 C4          2.3760    0.0762   -0.0160 C.ar      1 <0>        -0.0983
      5 C5          1.1926   -0.6390   -0.0091 C.ar      1 <0>         0.0153
      6 C6         -0.0185    0.0279    0.0040 C.ar      1 <0>        -0.6743
      7 S1         -1.5258   -0.8847    0.0129 S.o2      1 <0>         2.5369
      8 O1         -1.1915   -2.1312    0.6076 O.2       1 <0>        -0.9046
      9 O2         -2.4702   -0.0188    0.6274 O.2       1 <0>        -0.9049
     10 C7         -1.9393   -1.1186   -1.7378 C.3       1 <0>        -0.6623
     11 C8         -3.2254   -1.8961   -1.8506 C.2       1 <0>         0.5483
     12 O3         -3.8058   -2.2568   -0.8485 O.2       1 <0>        -0.5038
     13 N1         -3.7306   -2.1905   -3.0649 N.am      1 <0>        -0.6562
     14 C9         -4.8732   -2.9919   -3.1720 C.ar      1 <0>         0.1609
     15 C10        -5.8731   -2.9095   -2.2124 C.ar      1 <0>        -0.1029
     16 C11        -7.0005   -3.7019   -2.3213 C.ar      1 <0>        -0.0124
     17 C12        -7.1329   -4.5768   -3.3855 C.ar      1 <0>        -0.1071
     18 C13        -6.1387   -4.6615   -4.3424 C.ar      1 <0>        -0.0769
     19 C14        -5.0116   -3.8675   -4.2421 C.ar      1 <0>        -0.0584
     20 Cl1        -3.7670   -3.9694   -5.4480 Cl        1 <0>        -0.0523
     21 Cl2        -8.2511   -3.6000   -1.1216 Cl        1 <0>        -0.0468
     22 Cl3         3.8968   -0.7609   -0.0330 Cl        1 <0>        -0.0297
     23 F1          3.5023    2.1622   -0.0170 F         1 <0>        -0.1121
     24 H1         -0.9946    1.9292    0.0249 H         1 <0>         0.1628
     25 H2          1.1099    3.2070    0.0077 H         1 <0>         0.1605
     26 H3          1.2143   -1.7188   -0.0142 H         1 <0>         0.1649
     27 H4         -2.0594   -0.1464   -2.2158 H         1 <0>         0.1728
     28 H5         -1.1376   -1.6691   -2.2301 H         1 <0>         0.1727
     29 H6         -3.3023   -1.8470   -3.8646 H         1 <0>         0.4213
     30 H7         -5.7701   -2.2272   -1.3816 H         1 <0>         0.1634
     31 H8         -8.0147   -5.1949   -3.4685 H         1 <0>         0.1486
     32 H9         -6.2447   -5.3456   -5.1713 H         1 <0>         0.1514
@<TRIPOS>BOND
     1    1    6 ar
     2    1    2 ar
     3    1   24 1
     4    2    3 ar
     5    2   25 1
     6    3    4 ar
     7    3   23 1
     8    4    5 ar
     9    4   22 1
    10    5    6 ar
    11    5   26 1
    12    6    7 1
    13    7    8 2
    14    7    9 2
    15    7   10 1
    16   10   11 1
    17   10   27 1
    18   10   28 1
    19   11   12 2
    20   11   13 am
    21   13   14 1
    22   13   29 1
    23   14   19 ar
    24   14   15 ar
    25   15   16 ar
    26   15   30 1
    27   16   17 ar
    28   16   21 1
    29   17   18 ar
    30   17   31 1
    31   18   19 ar
    32   18   32 1
    33   19   20 1
