@<TRIPOS>MOLECULE
ZINC49643884
   45    46     0     0     0
SMALL
USER_CHARGES

@<TRIPOS>ATOM
      1 C1          0.3508    1.6181   -0.3582 C.3       1 <0>         0.0850
      2 N1          0.0256    0.2065   -0.1395 N.pl3     1 <0>        -0.9951
      3 C2         -0.2270   -0.2853    1.2171 C.3       1 <0>         0.1542
      4 C3         -1.4291    0.4783    1.8095 C.3       1 <0>        -0.1257
      5 C4         -2.0028   -0.3351    2.9380 C.3       1 <0>        -0.1216
      6 C5         -1.4325    0.0748    4.3093 C.3       1 <0>        -0.1204
      7 C6          0.0848    0.3397    4.2703 C.3       1 <0>        -0.1232
      8 C7          0.8254   -0.6748    3.4417 C.3       1 <0>        -0.1146
      9 C8          0.9814   -0.1197    2.0111 C.3       1 <0>        -0.1340
     10 S1         -0.0565   -0.8331   -1.4259 S.o2      1 <0>         2.6106
     11 O1          0.6820   -0.1928   -2.4573 O.2       1 <0>        -0.9369
     12 O2          0.3633   -2.0872   -0.9059 O.2       1 <0>        -0.9319
     13 C9         -1.8158   -0.8955   -1.8634 C.3       1 <0>        -0.6309
     14 C10        -2.3232    0.5211   -2.1483 C.3       1 <0>        -0.1337
     15 C11        -3.7856    0.4533   -2.5935 C.3       1 <0>         0.0015
     16 N2         -3.8932   -0.3605   -3.8103 N.4       1 <0>        -0.5065
     17 C12        -3.4760   -1.7388   -3.5262 C.3       1 <0>         0.0035
     18 C13        -2.0016   -1.7554   -3.1169 C.3       1 <0>        -0.1359
     19 H1          1.4308    1.7548   -0.3037 H         1 <0>         0.0675
     20 H2         -0.0051    1.9248   -1.3417 H         1 <0>         0.0721
     21 H3         -0.1314    2.2250    0.4082 H         1 <0>         0.0805
     22 H4         -0.4741   -1.3458    1.1674 H         1 <0>         0.0937
     23 H5         -1.0983    1.4459    2.1868 H         1 <0>         0.0788
     24 H6         -2.1870    0.6220    1.0395 H         1 <0>         0.0622
     25 H7         -3.0848   -0.2041    2.9526 H         1 <0>         0.0636
     26 H8         -1.7792   -1.3875    2.7634 H         1 <0>         0.0635
     27 H9         -1.9389    0.9800    4.6443 H         1 <0>         0.0615
     28 H10        -1.6318   -0.7224    5.0254 H         1 <0>         0.0635
     29 H11         0.2590    1.3312    3.8524 H         1 <0>         0.0615
     30 H12         0.4734    0.3149    5.2883 H         1 <0>         0.0641
     31 H13         1.8097   -0.8529    3.8747 H         1 <0>         0.0720
     32 H14         0.2608   -1.6068    3.4132 H         1 <0>         0.0691
     33 H15         1.8021   -0.6406    1.5179 H         1 <0>         0.0699
     34 H16         1.2232    0.9416    2.0687 H         1 <0>         0.0718
     35 H17        -2.3816   -1.3274   -1.0379 H         1 <0>         0.1544
     36 H18        -2.2457    1.1242   -1.2437 H         1 <0>         0.1263
     37 H19        -1.7225    0.9707   -2.9389 H         1 <0>         0.1065
     38 H20        -4.3854    0.0038   -1.8021 H         1 <0>         0.1345
     39 H21        -4.1500    1.4602   -2.7969 H         1 <0>         0.1412
     40 H22        -4.8498   -0.3591   -4.1311 H         1 <0>         0.4360
     41 H23        -4.0824   -2.1416   -2.7149 H         1 <0>         0.1358
     42 H24        -3.6118   -2.3502   -4.4183 H         1 <0>         0.1427
     43 H25        -1.3943   -1.3530   -3.9276 H         1 <0>         0.1052
     44 H26        -1.6943   -2.7794   -2.9047 H         1 <0>         0.1272
     45 H27        -3.2995    0.0285   -4.5274 H         1 <0>         0.4305
@<TRIPOS>BOND
     1    1    2 1
     2    1   19 1
     3    1   20 1
     4    1   21 1
     5    2    3 1
     6    2   10 1
     7    3    9 1
     8    3    4 1
     9    3   22 1
    10    4    5 1
    11    4   23 1
    12    4   24 1
    13    5    6 1
    14    5   25 1
    15    5   26 1
    16    6    7 1
    17    6   27 1
    18    6   28 1
    19    7    8 1
    20    7   29 1
    21    7   30 1
    22    8    9 1
    23    8   31 1
    24    8   32 1
    25    9   33 1
    26    9   34 1
    27   10   11 2
    28   10   12 2
    29   10   13 1
    30   13   18 1
    31   13   14 1
    32   13   35 1
    33   14   15 1
    34   14   36 1
    35   14   37 1
    36   15   16 1
    37   15   38 1
    38   15   39 1
    39   16   17 1
    40   16   40 1
    41   16   45 1
    42   17   18 1
    43   17   41 1
    44   17   42 1
    45   18   43 1
    46   18   44 1
