@<TRIPOS>MOLECULE
ZINC43526459
   48    50     0     0     0
SMALL
USER_CHARGES

@<TRIPOS>ATOM
      1 C1          1.1568   -0.4871   -0.8631 C.3       1 <0>        -0.2027
      2 C2         -0.0000   -0.0010   -0.0285 C.2       1 <0>         0.3925
      3 O1          0.1105    1.0116    0.6301 O.2       1 <0>        -0.4533
      4 C3         -1.2609   -0.7532   -0.0125 C.ar      1 <0>        -0.1809
      5 C4         -1.3889   -1.9259   -0.7677 C.ar      1 <0>        -0.0489
      6 C5         -2.5637   -2.6226   -0.7494 C.ar      1 <0>        -0.1326
      7 C6         -3.6330   -2.1685    0.0178 C.ar      1 <0>         0.1830
      8 C7         -3.5104   -1.0034    0.7700 C.ar      1 <0>        -0.1547
      9 C8         -2.3375   -0.3033    0.7624 C.ar      1 <0>        -0.0383
     10 N1         -4.8294   -2.8819    0.0326 N.am      1 <0>        -0.6777
     11 C9         -4.8141   -4.2256   -0.0709 C.2       1 <0>         0.7079
     12 O2         -3.7551   -4.8226   -0.0797 O.2       1 <0>        -0.5464
     13 N2         -5.9729   -4.9075   -0.1646 N.am      1 <0>        -0.7625
     14 C10        -5.9563   -6.3681   -0.2771 C.3       1 <0>         0.1157
     15 C11        -7.3920   -6.8889   -0.3682 C.3       1 <0>         0.0180
     16 H1         -7.8480   -6.5329   -1.2920 H         1 <0>         0.1479
     17 C12        -7.3781   -8.4192   -0.3655 C.3       1 <0>        -0.1300
     18 C13        -8.1818   -8.9194    0.8419 C.3       1 <0>        -0.0928
     19 H2         -8.1946  -10.0092    0.8618 H         1 <0>         0.1248
     20 C14        -7.5290   -8.3721    2.1181 C.3       1 <0>        -0.1384
     21 C15        -7.5170   -6.8433    2.0497 C.3       1 <0>        -0.0021
     22 N3         -8.1619   -6.3946    0.7758 N.4       1 <0>        -0.3843
     23 C16        -9.5529   -6.8463    0.6951 C.3       1 <0>         0.0007
     24 C17        -9.6113   -8.3729    0.7318 C.3       1 <0>         0.0244
     25 H3        -10.0748   -8.7439   -0.1823 H         1 <0>         0.1275
     26 C18       -10.3970   -8.8079    1.8981 C.1       1 <0>        -0.2370
     27 C19       -11.0236   -9.1549    2.8283 C.1       1 <0>        -0.1282
     28 H4          1.9993    0.1950   -0.7486 H         1 <0>         0.0883
     29 H5          1.4490   -1.4841   -0.5334 H         1 <0>         0.0948
     30 H6          0.8588   -0.5237   -1.9109 H         1 <0>         0.0949
     31 H7         -0.5602   -2.2785   -1.3637 H         1 <0>         0.1397
     32 H8         -2.6633   -3.5270   -1.3314 H         1 <0>         0.1407
     33 H9         -4.3425   -0.6549    1.3638 H         1 <0>         0.1328
     34 H10        -2.2417    0.5980    1.3497 H         1 <0>         0.1413
     35 H11        -5.6735   -2.4116    0.1174 H         1 <0>         0.4101
     36 H12        -6.8178   -4.4312   -0.1576 H         1 <0>         0.3910
     37 H13        -5.4073   -6.6572   -1.1733 H         1 <0>         0.1176
     38 H14        -5.4700   -6.7945    0.6003 H         1 <0>         0.0991
     39 H15        -7.8312   -8.7901   -1.2849 H         1 <0>         0.1118
     40 H16        -6.3504   -8.7750   -0.2931 H         1 <0>         0.1123
     41 H17        -8.1012   -8.6943    2.9881 H         1 <0>         0.1031
     42 H18        -6.5066   -8.7424    2.1932 H         1 <0>         0.1056
     43 H19        -8.0783   -6.4392    2.8921 H         1 <0>         0.1301
     44 H20        -6.4880   -6.4872    2.0987 H         1 <0>         0.1353
     45 H21       -10.1134   -6.4437    1.5388 H         1 <0>         0.1360
     46 H22        -9.9958   -6.4892   -0.2346 H         1 <0>         0.1401
     47 H23       -11.5841   -9.4652    3.6602 H         1 <0>         0.2262
     48 H24        -8.1594   -5.3859    0.7504 H         1 <0>         0.4176
@<TRIPOS>BOND
     1    1    2 1
     2    1   28 1
     3    1   29 1
     4    1   30 1
     5    2    3 2
     6    2    4 1
     7    4    9 ar
     8    4    5 ar
     9    5    6 ar
    10    5   31 1
    11    6    7 ar
    12    6   32 1
    13    7    8 ar
    14    7   10 1
    15    8    9 ar
    16    8   33 1
    17    9   34 1
    18   10   11 am
    19   10   35 1
    20   11   12 2
    21   11   13 am
    22   13   14 1
    23   13   36 1
    24   14   15 1
    25   14   37 1
    26   14   38 1
    27   15   16 1
    28   15   22 1
    29   15   17 1
    30   17   18 1
    31   17   39 1
    32   17   40 1
    33   18   19 1
    34   18   24 1
    35   18   20 1
    36   20   21 1
    37   20   41 1
    38   20   42 1
    39   21   22 1
    40   21   43 1
    41   21   44 1
    42   22   23 1
    43   22   48 1
    44   23   24 1
    45   23   45 1
    46   23   46 1
    47   24   25 1
    48   24   26 1
    49   26   27 3
    50   27   47 1
