@<TRIPOS>MOLECULE
ZINC63213379
   42    43     0     0     0
SMALL
USER_CHARGES

@<TRIPOS>ATOM
      1 C1          2.7592   -1.5984    1.3504 C.3       1 <0>        -0.0823
      2 C2          1.4683   -1.5932    0.5727 C.2       1 <0>        -0.1244
      3 C3          0.4149   -2.4415    0.6616 C.2       1 <0>        -0.1194
      4 C4         -0.6778   -2.2419   -0.1612 C.2       1 <0>        -0.6990
      5 C5         -0.6634   -1.2038   -1.0326 C.2       1 <0>        -0.0783
      6 S1          0.9266   -0.4636   -0.6991 S.3       1 <0>         0.1297
      7 C6         -1.7184   -0.7808   -2.0223 C.3       1 <0>        -0.1020
      8 S2         -2.0681   -3.3212   -0.0789 S.o2      1 <0>         2.6951
      9 O1         -1.7658   -4.2985    0.9073 O.2       1 <0>        -0.9289
     10 O2         -3.2207   -2.4935   -0.0031 O.2       1 <0>        -0.9322
     11 N1         -2.1538   -4.1205   -1.5267 N.pl3     1 <0>        -1.1421
     12 C7         -1.0896   -5.0496   -1.9146 C.3       1 <0>         0.1345
     13 H1         -0.1695   -4.7639   -1.4048 H         1 <0>         0.1169
     14 C8         -1.4837   -6.4717   -1.4721 C.3       1 <0>        -0.1377
     15 C9         -0.6709   -7.5671   -2.1884 C.3       1 <0>        -0.1270
     16 C10         0.7869   -7.2150   -2.3112 C.3       1 <0>        -0.1313
     17 C11         1.0161   -6.5488   -3.6833 C.3       1 <0>        -0.1303
     18 C12         0.6295   -5.1457   -3.6903 C.3       1 <0>        -0.1299
     19 C13        -0.8740   -4.9500   -3.4005 C.3       1 <0>         0.0194
     20 H2         -1.4501   -5.7245   -3.9068 H         1 <0>         0.1600
     21 N2         -1.2987   -3.6255   -3.8730 N.4       1 <0>        -0.6368
     22 H3          3.3827   -0.7657    1.0250 H         1 <0>         0.0801
     23 H4          2.5431   -1.4966    2.4139 H         1 <0>         0.0922
     24 H5          3.2854   -2.5367    1.1747 H         1 <0>         0.0907
     25 H6          0.4291   -3.2613    1.3645 H         1 <0>         0.1558
     26 H7         -2.3465   -0.0096   -1.5763 H         1 <0>         0.1192
     27 H8         -1.2388   -0.3859   -2.9179 H         1 <0>         0.0969
     28 H9         -2.3327   -1.6410   -2.2883 H         1 <0>         0.0627
     29 H10        -2.9087   -3.9735   -2.1179 H         1 <0>         0.4128
     30 H11        -1.3249   -6.5622   -0.3976 H         1 <0>         0.0984
     31 H12        -2.5421   -6.6248   -1.6829 H         1 <0>         0.0837
     32 H13        -0.7630   -8.4977   -1.6284 H         1 <0>         0.0815
     33 H14        -1.0829   -7.7162   -3.1865 H         1 <0>         0.0669
     34 H15         1.0644   -6.5221   -1.5168 H         1 <0>         0.0719
     35 H16         1.3897   -8.1202   -2.2384 H         1 <0>         0.0819
     36 H17         2.0725   -6.6252   -3.9407 H         1 <0>         0.0884
     37 H18         0.4323   -7.0796   -4.4353 H         1 <0>         0.0767
     38 H19         1.2079   -4.6164   -2.9331 H         1 <0>         0.0925
     39 H20         0.8589   -4.7213   -4.6677 H         1 <0>         0.0923
     40 H21        -0.7572   -2.9127   -3.4074 H         1 <0>         0.4289
     41 H22        -1.1532   -3.5612   -4.8694 H         1 <0>         0.4415
     42 H23        -2.2775   -3.4927   -3.6668 H         1 <0>         0.4308
@<TRIPOS>BOND
     1    1    2 1
     2    1   22 1
     3    1   23 1
     4    1   24 1
     5    2    6 1
     6    2    3 2
     7    3    4 1
     8    3   25 1
     9    4    5 2
    10    4    8 1
    11    5    6 1
    12    5    7 1
    13    7   26 1
    14    7   27 1
    15    7   28 1
    16    8    9 2
    17    8   10 2
    18    8   11 1
    19   11   12 1
    20   11   29 1
    21   12   13 1
    22   12   19 1
    23   12   14 1
    24   14   15 1
    25   14   30 1
    26   14   31 1
    27   15   16 1
    28   15   32 1
    29   15   33 1
    30   16   17 1
    31   16   34 1
    32   16   35 1
    33   17   18 1
    34   17   36 1
    35   17   37 1
    36   18   19 1
    37   18   38 1
    38   18   39 1
    39   19   20 1
    40   19   21 1
    41   21   40 1
    42   21   41 1
    43   21   42 1
