@<TRIPOS>MOLECULE
ZINC39065835
   19    19     0     0     0
SMALL
USER_CHARGES

@<TRIPOS>ATOM
      1 C1         -0.0173    1.4248    0.0099 C.3       1 <0>         0.0220
      2 O1          0.0021   -0.0041    0.0020 O.3       1 <0>        -0.3216
      3 C2          0.6518   -0.5703   -1.1379 C.3       1 <0>         0.0722
      4 H1          0.5569    0.0919   -1.9984 H         1 <0>         0.0589
      5 C3          2.1399   -0.8482   -0.8302 C.3       1 <0>         0.0289
      6 O2          2.4329   -2.0867   -1.5129 O.3       1 <0>        -0.3849
      7 C4          1.2719   -2.9200   -1.3043 C.3       1 <0>         0.0677
      8 C5          0.0651   -1.9631   -1.4592 C.3       1 <0>        -0.1960
      9 H2         -0.3176   -1.9902   -2.4794 H         1 <0>         0.0779
     10 C6         -1.0211   -2.3179   -0.4767 C.2       1 <0>         0.5082
     11 O3         -2.0317   -2.8807   -0.8621 O.co2     1 <0>        -0.7082
     12 O4         -0.8894   -2.0423    0.7036 O.co2     1 <0>        -0.6641
     13 H3          1.0053    1.8021    0.0021 H         1 <0>         0.0288
     14 H4         -0.5445    1.7859   -0.8732 H         1 <0>         0.0310
     15 H5         -0.5275    1.7763    0.9067 H         1 <0>         0.0802
     16 H6          2.7644   -0.0438   -1.2187 H         1 <0>         0.0815
     17 H7          2.2906   -0.9619    0.2434 H         1 <0>         0.0687
     18 H8          1.2296   -3.7072   -2.0570 H         1 <0>         0.0850
     19 H9          1.2895   -3.3515   -0.3034 H         1 <0>         0.0636
@<TRIPOS>BOND
     1    1    2 1
     2    1   13 1
     3    1   14 1
     4    1   15 1
     5    2    3 1
     6    3    4 1
     7    3    8 1
     8    3    5 1
     9    5    6 1
    10    5   16 1
    11    5   17 1
    12    6    7 1
    13    7    8 1
    14    7   18 1
    15    7   19 1
    16    8    9 1
    17    8   10 1
    18   10   11 2
    19   10   12 1
