@<TRIPOS>MOLECULE
ZINC08299914
   61    65     0     0     0
SMALL
USER_CHARGES
N-[2-(4-methoxyphenyl)vinyl-dioxo-BLAHyl]-1-methyl-pyrrole-2-carboxamide
@<TRIPOS>ATOM
      1 C1         -0.1784   12.9367    3.3198 C.3       1 <0>         0.0656
      2 N1         -1.5388   12.7835    2.7984 N.pl3     1 <0>        -0.4097
      3 C2         -2.4743   13.7619    2.7310 C.2       1 <0>         0.0202
      4 C3         -3.6070   13.2488    2.1938 C.2       1 <0>        -0.2073
      5 C4         -3.3733   11.9001    1.9077 C.2       1 <0>        -0.1363
      6 C5         -2.0800   11.6219    2.2958 C.2       1 <0>        -0.0607
      7 C6         -1.4020   10.3257    2.1872 C.2       1 <0>         0.5962
      8 O1         -0.2829   10.1842    2.6438 O.2       1 <0>        -0.5429
      9 N2         -2.0185    9.2915    1.5815 N.am      1 <0>        -0.7096
     10 C7         -1.2972    8.0353    1.3626 C.3       1 <0>         0.1394
     11 H1         -0.5624    7.8669    2.1498 H         1 <0>         0.1171
     12 C8         -2.2814    6.8404    1.2559 C.3       1 <0>        -0.1267
     13 C9         -1.5005    5.8261    0.3954 C.3       1 <0>         0.1140
     14 H2         -1.0279    5.0732    1.0261 H         1 <0>         0.1180
     15 C10        -2.4414    5.1777   -0.5871 C.2       1 <0>         0.5147
     16 O2         -3.6192    5.4655   -0.5578 O.2       1 <0>        -0.5099
     17 N3         -2.0103    4.2979   -1.4852 N.am      1 <0>        -0.6572
     18 C11        -0.7229    3.8162   -1.6208 C.ar      1 <0>         0.1771
     19 C12        -0.5848    2.4466   -1.8802 C.ar      1 <0>        -0.1412
     20 C13         0.6542    1.8784   -2.0397 C.ar      1 <0>        -0.0665
     21 C14         1.8055    2.6710   -1.9541 C.ar      1 <0>        -0.0610
     22 C15         1.6846    4.0322   -1.6977 C.ar      1 <0>        -0.0338
     23 C16         0.4203    4.6113   -1.5255 C.ar      1 <0>        -0.1408
     24 C17         0.3701    6.0540   -1.2403 C.2       1 <0>         0.5763
     25 O3          1.1491    6.7905   -1.8140 O.2       1 <0>        -0.5191
     26 N4         -0.5002    6.5872   -0.3735 N.am      1 <0>        -0.6005
     27 C18        -0.6294    8.0149   -0.0348 C.3       1 <0>         0.0969
     28 C19         3.1370    2.0659   -2.1341 C.2       1 <0>        -0.1206
     29 C20         3.2491    0.7507   -2.3811 C.2       1 <0>        -0.0863
     30 C21         4.5805    0.1457   -2.5612 C.ar      1 <0>        -0.1016
     31 C22         5.7281    0.9398   -2.4810 C.ar      1 <0>        -0.0679
     32 C23         6.9713    0.3685   -2.6453 C.ar      1 <0>        -0.2078
     33 C24         7.0847   -0.9920   -2.9007 C.ar      1 <0>         0.1333
     34 C25         5.9470   -1.7842   -2.9865 C.ar      1 <0>        -0.1520
     35 C26         4.6997   -1.2231   -2.8184 C.ar      1 <0>        -0.0635
     36 O4          8.3123   -1.5498   -3.0668 O.3       1 <0>        -0.3163
     37 C27         9.4401   -0.6780   -2.9659 C.3       1 <0>         0.0255
     38 H3          0.5077   13.1275    2.4946 H         1 <0>         0.0771
     39 H4         -0.1488   13.7733    4.0178 H         1 <0>         0.0852
     40 H5          0.1182   12.0230    3.8350 H         1 <0>         0.1005
     41 H6         -2.3389   14.7838    3.0533 H         1 <0>         0.1708
     42 H7         -4.5259   13.7870    2.0141 H         1 <0>         0.1447
     43 H8         -4.0748   11.2065    1.4681 H         1 <0>         0.1443
     44 H9         -2.9397    9.3789    1.2906 H         1 <0>         0.4086
     45 H10        -3.2019    7.1423    0.7561 H         1 <0>         0.1094
     46 H11        -2.4970    6.4256    2.2406 H         1 <0>         0.1041
     47 H12        -2.6690    3.9582   -2.1111 H         1 <0>         0.4126
     48 H13        -1.4668    1.8276   -1.9522 H         1 <0>         0.1387
     49 H14         0.7411    0.8199   -2.2358 H         1 <0>         0.1394
     50 H15         2.5702    4.6467   -1.6305 H         1 <0>         0.1423
     51 H16        -1.2613    8.5217   -0.7642 H         1 <0>         0.0788
     52 H17         0.3524    8.4864    0.0075 H         1 <0>         0.0946
     53 H18         4.0228    2.6802   -2.0674 H         1 <0>         0.1262
     54 H19         2.3633    0.1364   -2.4478 H         1 <0>         0.1243
     55 H20         5.6407    1.9985   -2.2866 H         1 <0>         0.1293
     56 H21         7.8588    0.9804   -2.5792 H         1 <0>         0.1307
     57 H22         6.0401   -2.8416   -3.1856 H         1 <0>         0.1338
     58 H23         3.8157   -1.8399   -2.8849 H         1 <0>         0.1333
     59 H24         9.3668    0.1002   -3.7256 H         1 <0>         0.0572
     60 H25         9.4579   -0.2199   -1.9770 H         1 <0>         0.0571
     61 H26        10.3558   -1.2494   -3.1181 H         1 <0>         0.1023
@<TRIPOS>BOND
     1    1    2 1
     2    1   38 1
     3    1   39 1
     4    1   40 1
     5    2    6 1
     6    2    3 1
     7    3    4 2
     8    3   41 1
     9    4    5 1
    10    4   42 1
    11    5    6 2
    12    5   43 1
    13    6    7 1
    14    7    8 2
    15    7    9 am
    16    9   10 1
    17    9   44 1
    18   10   11 1
    19   10   27 1
    20   10   12 1
    21   12   13 1
    22   12   45 1
    23   12   46 1
    24   13   14 1
    25   13   26 1
    26   13   15 1
    27   15   16 2
    28   15   17 am
    29   17   18 1
    30   17   47 1
    31   18   23 ar
    32   18   19 ar
    33   19   20 ar
    34   19   48 1
    35   20   21 ar
    36   20   49 1
    37   21   22 ar
    38   21   28 1
    39   22   23 ar
    40   22   50 1
    41   23   24 1
    42   24   25 2
    43   24   26 am
    44   26   27 1
    45   27   51 1
    46   27   52 1
    47   28   29 2
    48   28   53 1
    49   29   30 1
    50   29   54 1
    51   30   35 ar
    52   30   31 ar
    53   31   32 ar
    54   31   55 1
    55   32   33 ar
    56   32   56 1
    57   33   34 ar
    58   33   36 1
    59   34   35 ar
    60   34   57 1
    61   35   58 1
    62   36   37 1
    63   37   59 1
    64   37   60 1
    65   37   61 1
