@<TRIPOS>MOLECULE
ZINC26655283
   56    58     0     0     0
SMALL
USER_CHARGES
N-[(1S)-2-(hydroxyamino)-2-oxo-1-[(4-phenoxyphenyl)sulfonylmethyl]ethyl]-N-methyl-2-(4-pyridyl)acetamide
@<TRIPOS>ATOM
      1 C1          4.8901    5.5981   -0.5814 C.3       1 <0>         0.0568
      2 N1          4.0386    5.0498   -1.6400 N.am      1 <0>        -0.6062
      3 C2          4.3956    5.2534   -3.0462 C.3       1 <0>         0.1490
      4 H1          3.6178    4.7738   -3.6586 H         1 <0>         0.1497
      5 C3          5.7683    4.6351   -3.3186 C.3       1 <0>        -0.6363
      6 S1          5.6749    2.8364   -3.1027 S.o2      1 <0>         2.5033
      7 O1          5.4537    2.5184   -1.7355 O.2       1 <0>        -0.9157
      8 O2          4.8654    2.2627   -4.1200 O.2       1 <0>        -0.9175
      9 C4          7.3030    2.2544   -3.4420 C.ar      1 <0>        -0.6724
     10 C5          7.6536    1.8971   -4.7309 C.ar      1 <0>        -0.0051
     11 C6          8.9310    1.4459   -5.0006 C.ar      1 <0>        -0.1421
     12 C7          9.8595    1.3411   -3.9748 C.ar      1 <0>         0.1506
     13 C8          9.5034    1.6950   -2.6812 C.ar      1 <0>        -0.1607
     14 C9          8.2262    2.1506   -2.4178 C.ar      1 <0>        -0.0038
     15 O3         11.1154    0.8932   -4.2366 O.3       1 <0>        -0.2594
     16 C10        11.4842   -0.3090   -3.7216 C.ar      1 <0>         0.1146
     17 C11        10.5537   -1.0956   -3.0577 C.ar      1 <0>        -0.1949
     18 C12        10.9300   -2.3197   -2.5398 C.ar      1 <0>        -0.0805
     19 C13        12.2350   -2.7566   -2.6733 C.ar      1 <0>        -0.1459
     20 C14        13.1656   -1.9722   -3.3295 C.ar      1 <0>        -0.0817
     21 C15        12.7933   -0.7496   -3.8539 C.ar      1 <0>        -0.1399
     22 C16         4.4416    6.7299   -3.3441 C.2       1 <0>         0.5292
     23 O4          4.2001    7.5331   -2.4681 O.2       1 <0>        -0.5046
     24 N2          4.7513    7.1578   -4.5841 N.am      1 <0>        -0.5945
     25 O5          4.7946    8.5452   -4.8640 O.3       1 <0>        -0.3443
     26 C17         2.9269    4.3582   -1.3202 C.2       1 <0>         0.5284
     27 O6          2.2220    3.9044   -2.1966 O.2       1 <0>        -0.5208
     28 C18         2.5597    4.1489    0.1263 C.3       1 <0>        -0.1039
     29 C19         1.2840    3.3512    0.2103 C.ar      1 <0>        -0.0276
     30 C20         1.3152    1.9661    0.2642 C.ar      1 <0>        -0.1565
     31 C21         0.1248    1.2680    0.3403 C.ar      1 <0>         0.1000
     32 N3         -1.0302    1.9041    0.3568 N.ar      1 <0>        -0.4846
     33 C22        -1.0977    3.2203    0.3121 C.ar      1 <0>         0.0997
     34 C23         0.0510    3.9849    0.2351 C.ar      1 <0>        -0.1588
     35 H2          4.4635    5.3449    0.4004 H         1 <0>         0.0917
     36 H3          4.9464    6.6917   -0.6857 H         1 <0>         0.0903
     37 H4          5.8997    5.1694   -0.6641 H         1 <0>         0.0653
     38 H5          6.0761    4.8652   -4.3493 H         1 <0>         0.1538
     39 H6          6.5041    5.0512   -2.6147 H         1 <0>         0.1549
     40 H7          6.9292    1.9746   -5.5282 H         1 <0>         0.1531
     41 H8          9.2057    1.1711   -6.0083 H         1 <0>         0.1471
     42 H9         10.2243    1.6148   -1.8811 H         1 <0>         0.1437
     43 H10         7.9485    2.4261   -1.4112 H         1 <0>         0.1514
     44 H11         9.5353   -0.7528   -2.9492 H         1 <0>         0.1284
     45 H12        10.2052   -2.9340   -2.0262 H         1 <0>         0.1293
     46 H13        12.5281   -3.7121   -2.2640 H         1 <0>         0.1286
     47 H14        14.1843   -2.3157   -3.4324 H         1 <0>         0.1345
     48 H15        13.5206   -0.1371   -4.3660 H         1 <0>         0.1347
     49 H16         4.9704    6.4293   -5.3787 H         1 <0>         0.4266
     50 H17         5.0473    8.8945   -5.8760 H         1 <0>         0.4232
     51 H18         3.3680    3.6025    0.6344 H         1 <0>         0.1217
     52 H19         2.4147    5.1248    0.6127 H         1 <0>         0.1156
     53 H20         2.2579    1.4393    0.2466 H         1 <0>         0.1364
     54 H21         0.1406    0.1890    0.3823 H         1 <0>         0.1568
     55 H22        -2.0620    3.7063    0.3319 H         1 <0>         0.1561
     56 H23        -0.0110    5.0623    0.1943 H         1 <0>         0.1330
@<TRIPOS>BOND
     1    1    2 1
     2    1   35 1
     3    1   36 1
     4    1   37 1
     5    2    3 1
     6    2   26 am
     7    3    4 1
     8    3    5 1
     9    3   22 1
    10    5    6 1
    11    5   38 1
    12    5   39 1
    13    6    7 2
    14    6    8 2
    15    6    9 1
    16    9   14 ar
    17    9   10 ar
    18   10   11 ar
    19   10   40 1
    20   11   12 ar
    21   11   41 1
    22   12   13 ar
    23   12   15 1
    24   13   14 ar
    25   13   42 1
    26   14   43 1
    27   15   16 1
    28   16   21 ar
    29   16   17 ar
    30   17   18 ar
    31   17   44 1
    32   18   19 ar
    33   18   45 1
    34   19   20 ar
    35   19   46 1
    36   20   21 ar
    37   20   47 1
    38   21   48 1
    39   22   23 2
    40   22   24 am
    41   24   25 1
    42   24   49 1
    43   25   50 1
    44   26   27 2
    45   26   28 1
    46   28   29 1
    47   28   51 1
    48   28   52 1
    49   29   34 ar
    50   29   30 ar
    51   30   31 ar
    52   30   53 1
    53   31   32 ar
    54   31   54 1
    55   32   33 ar
    56   33   34 ar
    57   33   55 1
    58   34   56 1
