@<TRIPOS>MOLECULE
ZINC48234351
   44    45     0     0     0
SMALL
USER_CHARGES

@<TRIPOS>ATOM
      1 C1         -0.0184    1.5028    0.0103 C.3       1 <0>        -0.1189
      2 C2          0.0021   -0.0041    0.0020 C.ar      1 <0>        -0.0792
      3 C3          0.0057   -0.6887   -1.1989 C.ar      1 <0>        -0.1184
      4 C4          0.0245   -2.0709   -1.2065 C.ar      1 <0>        -0.1008
      5 C5          0.0400   -2.7685   -0.0132 C.ar      1 <0>        -0.1267
      6 C6          0.0373   -2.0839    1.1877 C.ar      1 <0>        -0.1037
      7 C7          0.0229   -0.7016    1.1953 C.ar      1 <0>        -0.1172
      8 C8          0.0595   -4.2753   -0.0215 C.3       1 <0>         0.1410
      9 H1         -0.2927   -4.6379   -0.9872 H         1 <0>         0.1142
     10 C9          1.4879   -4.7683    0.2184 C.3       1 <0>         0.1123
     11 N1          1.5287   -6.2272    0.0920 N.am      1 <0>        -0.7411
     12 C10         2.6917   -6.8862    0.2636 C.2       1 <0>         0.7042
     13 O1          3.7071   -6.2699    0.5233 O.2       1 <0>        -0.5872
     14 N2          2.7293   -8.2284    0.1473 N.am      1 <0>        -0.7483
     15 C11         3.9935   -8.9448    0.3338 C.3       1 <0>         0.1480
     16 C12         3.7613  -10.4457    0.1490 C.3       1 <0>        -0.1045
     17 H2          2.9621  -10.7727    0.8141 H         1 <0>         0.1032
     18 C13         3.3585  -10.7243   -1.3086 C.3       1 <0>        -0.1297
     19 C14         3.4357  -12.2593   -1.5475 C.3       1 <0>        -0.5757
     20 S1          4.9821  -12.6656   -0.6319 S.o2      1 <0>         2.3720
     21 O2          6.0800  -12.6128   -1.5325 O.2       1 <0>        -0.9328
     22 O3          4.7673  -13.8388    0.1407 O.2       1 <0>        -0.9363
     23 C15         5.0612  -11.2128    0.4917 C.3       1 <0>        -0.5771
     24 O4         -0.7946   -4.7684    1.0127 O.3       1 <0>        -0.5513
     25 H3          1.0042    1.8801    0.0026 H         1 <0>         0.0731
     26 H4         -0.5455    1.8639   -0.8728 H         1 <0>         0.0681
     27 H5         -0.5286    1.8543    0.9071 H         1 <0>         0.0680
     28 H6         -0.0064   -0.1436   -2.1312 H         1 <0>         0.1252
     29 H7          0.0266   -2.6057   -2.1448 H         1 <0>         0.1248
     30 H8          0.0491   -2.6289    2.1200 H         1 <0>         0.1209
     31 H9          0.0245   -0.1667    2.1335 H         1 <0>         0.1250
     32 H10         2.1551   -4.3209   -0.5183 H         1 <0>         0.0789
     33 H11         1.8079   -4.4813    1.2201 H         1 <0>         0.0722
     34 H12         0.7186   -6.7189   -0.1152 H         1 <0>         0.4007
     35 H13         1.9192   -8.7202   -0.0599 H         1 <0>         0.3973
     36 H14         4.7202   -8.5964   -0.4002 H         1 <0>         0.0763
     37 H15         4.3729   -8.7568    1.3382 H         1 <0>         0.0779
     38 H16         2.3405  -10.3754   -1.4823 H         1 <0>         0.0999
     39 H17         4.0432  -10.2117   -1.9842 H         1 <0>         0.0936
     40 H18         2.5754  -12.7695   -1.1141 H         1 <0>         0.1400
     41 H19         3.5340  -12.4887   -2.6086 H         1 <0>         0.1427
     42 H20         5.9383  -10.6033    0.2745 H         1 <0>         0.1452
     43 H21         5.0588  -11.5309    1.5342 H         1 <0>         0.1464
     44 H22        -0.5403   -4.4846    1.9014 H         1 <0>         0.3778
@<TRIPOS>BOND
     1    1    2 1
     2    1   25 1
     3    1   26 1
     4    1   27 1
     5    2    7 ar
     6    2    3 ar
     7    3    4 ar
     8    3   28 1
     9    4    5 ar
    10    4   29 1
    11    5    6 ar
    12    5    8 1
    13    6    7 ar
    14    6   30 1
    15    7   31 1
    16    8    9 1
    17    8   10 1
    18    8   24 1
    19   10   11 1
    20   10   32 1
    21   10   33 1
    22   11   12 am
    23   11   34 1
    24   12   13 2
    25   12   14 am
    26   14   15 1
    27   14   35 1
    28   15   16 1
    29   15   36 1
    30   15   37 1
    31   16   17 1
    32   16   23 1
    33   16   18 1
    34   18   19 1
    35   18   38 1
    36   18   39 1
    37   19   20 1
    38   19   40 1
    39   19   41 1
    40   20   21 2
    41   20   22 2
    42   20   23 1
    43   23   42 1
    44   23   43 1
    45   24   44 1
