@<TRIPOS>MOLECULE
ZINC35867860
   63    67     0     0     0
SMALL
USER_CHARGES

@<TRIPOS>ATOM
      1 C1          0.5481   -3.0403    0.4602 C.3       1 <0>        -0.1432
      2 C2          1.6696   -3.0629   -0.5802 C.3       1 <0>        -0.0529
      3 C3          1.4922   -1.9107   -1.5351 C.ar      1 <0>         0.3527
      4 N1          0.7647   -2.0807   -2.6248 N.ar      1 <0>        -0.5335
      5 C4          0.5716   -1.1092   -3.5021 C.ar      1 <0>         0.4817
      6 C5          1.1654    0.1624   -3.2687 C.ar      1 <0>        -0.1896
      7 C6          1.0932    1.3724   -4.0895 C.2       1 <0>        -0.0786
      8 C7          1.7534    2.4580   -3.6380 C.2       1 <0>        -0.1376
      9 S1          2.5008    1.9447   -2.1145 S.3       1 <0>         0.1049
     10 C8          1.9253    0.2672   -2.0866 C.ar      1 <0>         0.1245
     11 N2          2.0623   -0.7531   -1.2620 N.ar      1 <0>        -0.4815
     12 C9          1.8357    3.8057   -4.2879 C.3       1 <0>        -0.0417
     13 C10         1.3625    3.6720   -5.7424 C.3       1 <0>        -0.1148
     14 C11         0.0481    2.8862   -5.7603 C.3       1 <0>        -0.1245
     15 C12         0.3124    1.4239   -5.3999 C.3       1 <0>        -0.0624
     16 N3         -0.1968   -1.3272   -4.6314 N.pl3     1 <0>        -0.6561
     17 C13         0.4336   -1.7089   -5.9029 C.3       1 <0>         0.1356
     18 C14        -0.2059   -3.0132   -6.3949 C.3       1 <0>         0.1019
     19 N4         -1.6674   -2.8678   -6.3445 N.pl3     1 <0>        -0.9927
     20 C15        -2.2979   -2.4862   -5.0730 C.3       1 <0>         0.1023
     21 C16        -1.6589   -1.1873   -4.5796 C.3       1 <0>         0.1359
     22 S2         -2.5874   -3.1288   -7.6965 S.o2      1 <0>         2.6915
     23 O1         -3.7946   -2.4019   -7.5128 O.2       1 <0>        -0.9532
     24 O2         -1.7351   -2.9203   -8.8142 O.2       1 <0>        -0.9525
     25 C17        -3.0242   -4.8358   -7.7078 C.ar      1 <0>        -0.6951
     26 C18        -2.2015   -5.7544   -8.3335 C.ar      1 <0>         0.0017
     27 C19        -2.5410   -7.0931   -8.3441 C.ar      1 <0>        -0.1424
     28 C20        -3.7099   -7.5163   -7.7252 C.ar      1 <0>         0.2038
     29 C21        -4.5338   -6.5914   -7.0973 C.ar      1 <0>        -0.1666
     30 C22        -4.1862   -5.2548   -7.0861 C.ar      1 <0>         0.0017
     31 N5         -4.0570   -8.8718   -7.7346 N.am      1 <0>        -0.6793
     32 C23        -3.0957   -9.8141   -7.6676 C.2       1 <0>         0.5120
     33 O3         -1.9389   -9.4895   -7.5016 O.2       1 <0>        -0.5184
     34 C24        -3.4581  -11.2709   -7.7992 C.3       1 <0>        -0.1706
     35 H1          0.5842   -2.1015    1.0130 H         1 <0>         0.0585
     36 H2         -0.4152   -3.1295   -0.0419 H         1 <0>         0.0580
     37 H3          0.6764   -3.8737    1.1509 H         1 <0>         0.0701
     38 H4          2.6329   -2.9737   -0.0781 H         1 <0>         0.0934
     39 H5          1.6335   -4.0017   -1.1330 H         1 <0>         0.0938
     40 H6          1.1948    4.5092   -3.7566 H         1 <0>         0.0886
     41 H7          2.8663    4.1603   -4.2683 H         1 <0>         0.0864
     42 H8          1.2021    4.6629   -6.1673 H         1 <0>         0.0769
     43 H9          2.1149    3.1395   -6.3243 H         1 <0>         0.0696
     44 H10        -0.6423    3.3188   -5.0362 H         1 <0>         0.0665
     45 H11        -0.3925    2.9399   -6.7558 H         1 <0>         0.0727
     46 H12         0.8952    0.9521   -6.1911 H         1 <0>         0.0783
     47 H13        -0.6361    0.9003   -5.2807 H         1 <0>         0.0859
     48 H14         0.2745   -0.9224   -6.6406 H         1 <0>         0.0726
     49 H15         1.5022   -1.8601   -5.7505 H         1 <0>         0.0820
     50 H16         0.1071   -3.2100   -7.4203 H         1 <0>         0.1023
     51 H17         0.1022   -3.8372   -5.7512 H         1 <0>         0.0779
     52 H18        -3.3665   -2.3349   -5.2254 H         1 <0>         0.1019
     53 H19        -2.1388   -3.2726   -4.3352 H         1 <0>         0.0781
     54 H20        -1.9718   -0.9942   -3.5535 H         1 <0>         0.0825
     55 H21        -1.9704   -0.3629   -5.2210 H         1 <0>         0.0717
     56 H22        -1.2925   -5.4246   -8.8146 H         1 <0>         0.1430
     57 H23        -1.8983   -7.8099   -8.8335 H         1 <0>         0.1426
     58 H24        -5.4437   -6.9174   -6.6154 H         1 <0>         0.1373
     59 H25        -4.8244   -4.5355   -6.5944 H         1 <0>         0.1440
     60 H26        -4.9895   -9.1333   -7.7893 H         1 <0>         0.4166
     61 H27        -4.5346  -11.3661   -7.9416 H         1 <0>         0.0808
     62 H28        -2.9389  -11.6985   -8.6569 H         1 <0>         0.1031
     63 H29        -3.1630  -11.8019   -6.8941 H         1 <0>         0.1020
@<TRIPOS>BOND
     1    1    2 1
     2    1   35 1
     3    1   36 1
     4    1   37 1
     5    2    3 1
     6    2   38 1
     7    2   39 1
     8    3   11 ar
     9    3    4 ar
    10    4    5 ar
    11    5    6 ar
    12    5   16 1
    13    6   10 ar
    14    6    7 1
    15    7   15 1
    16    7    8 2
    17    8    9 1
    18    8   12 1
    19    9   10 1
    20   10   11 ar
    21   12   13 1
    22   12   40 1
    23   12   41 1
    24   13   14 1
    25   13   42 1
    26   13   43 1
    27   14   15 1
    28   14   44 1
    29   14   45 1
    30   15   46 1
    31   15   47 1
    32   16   21 1
    33   16   17 1
    34   17   18 1
    35   17   48 1
    36   17   49 1
    37   18   19 1
    38   18   50 1
    39   18   51 1
    40   19   20 1
    41   19   22 1
    42   20   21 1
    43   20   52 1
    44   20   53 1
    45   21   54 1
    46   21   55 1
    47   22   23 2
    48   22   24 2
    49   22   25 1
    50   25   30 ar
    51   25   26 ar
    52   26   27 ar
    53   26   56 1
    54   27   28 ar
    55   27   57 1
    56   28   29 ar
    57   28   31 1
    58   29   30 ar
    59   29   58 1
    60   30   59 1
    61   31   32 am
    62   31   60 1
    63   32   33 2
    64   32   34 1
    65   34   61 1
    66   34   62 1
    67   34   63 1
