@<TRIPOS>MOLECULE
ZINC55255158
   51    53     0     0     0
SMALL
USER_CHARGES

@<TRIPOS>ATOM
      1 C1         -2.1247   -5.5687    0.6384 C.3       1 <0>        -0.0795
      2 C2         -1.2914   -4.3163    0.5476 C.2       1 <0>         0.0939
      3 C3         -1.7720   -3.0440    0.4383 C.2       1 <0>        -0.2588
      4 C4         -0.5861   -2.1765    0.3842 C.2       1 <0>        -0.1909
      5 C5          0.4738   -2.9952    0.4648 C.2       1 <0>        -0.0303
      6 O1          0.0439   -4.2626    0.5665 O.3       1 <0>        -0.1720
      7 C6         -3.1840   -2.6268    0.3847 C.2       1 <0>         0.5960
      8 O2         -4.0671   -3.4611    0.4395 O.2       1 <0>        -0.5169
      9 N1         -3.4970   -1.3205    0.2749 N.am      1 <0>        -0.6681
     10 C7         -4.8272   -0.9328    0.1255 C.ar      1 <0>         0.1771
     11 C8         -5.8331   -1.6362    0.7812 C.ar      1 <0>        -0.1302
     12 C9         -7.1481   -1.2559    0.6357 C.ar      1 <0>        -0.0723
     13 C10        -7.4723   -0.1617   -0.1711 C.ar      1 <0>        -0.1547
     14 C11        -6.4596    0.5428   -0.8278 C.ar      1 <0>        -0.0375
     15 C12        -5.1462    0.1603   -0.6743 C.ar      1 <0>        -0.1531
     16 C13        -8.8811    0.2485   -0.3297 C.2       1 <0>         0.5640
     17 O3         -9.1565    1.4182   -0.5147 O.2       1 <0>        -0.5162
     18 N2         -9.8623   -0.6735   -0.2693 N.am      1 <0>        -0.6103
     19 C14        -9.5259   -2.0955   -0.1648 C.3       1 <0>         0.0650
     20 C15       -11.2653   -0.2537   -0.3083 C.3       1 <0>         0.2010
     21 C16       -11.7376   -0.2118   -1.7388 C.2       1 <0>         0.2749
     22 N3        -12.2859   -1.1986   -2.3917 N.2       1 <0>        -0.5311
     23 C17       -12.5829   -0.8154   -3.6386 C.2       1 <0>         0.2523
     24 N4        -12.2250    0.4267   -3.7946 N.2       1 <0>        -0.3316
     25 O4        -11.6718    0.8466   -2.5562 O.3       1 <0>        -0.0851
     26 C18       -13.2263   -1.6807   -4.6913 C.3       1 <0>        -0.0354
     27 C19       -14.7476   -1.5430   -4.6048 C.3       1 <0>         0.0697
     28 O5        -15.3578   -2.3635   -5.6031 O.3       1 <0>        -0.3881
     29 C20       -16.7857   -2.3075   -5.6083 C.3       1 <0>         0.0319
     30 H1         -1.4695   -6.4358    0.7223 H         1 <0>         0.0802
     31 H2         -2.7688   -5.5137    1.5160 H         1 <0>         0.0987
     32 H3         -2.7385   -5.6624   -0.2575 H         1 <0>         0.0986
     33 H4         -0.5713   -1.1001    0.2974 H         1 <0>         0.1583
     34 H5          1.5079   -2.6838    0.4531 H         1 <0>         0.2111
     35 H6         -2.7964   -0.6501    0.2999 H         1 <0>         0.4141
     36 H7         -5.5819   -2.4816    1.4045 H         1 <0>         0.1476
     37 H8         -7.9284   -1.8026    1.1443 H         1 <0>         0.1437
     38 H9         -6.7069    1.3886   -1.4523 H         1 <0>         0.1379
     39 H10        -4.3628    0.7068   -1.1782 H         1 <0>         0.1346
     40 H11        -9.4973   -2.3858    0.8855 H         1 <0>         0.0717
     41 H12       -10.2799   -2.6864   -0.6847 H         1 <0>         0.0815
     42 H13        -8.5501   -2.2722   -0.6173 H         1 <0>         0.0869
     43 H14       -11.8726   -0.9629    0.2542 H         1 <0>         0.1343
     44 H15       -11.3604    0.7376    0.1349 H         1 <0>         0.1262
     45 H16       -12.8884   -1.3643   -5.6781 H         1 <0>         0.1052
     46 H17       -12.9458   -2.7212   -4.5276 H         1 <0>         0.1119
     47 H18       -15.0856   -1.8594   -3.6180 H         1 <0>         0.0596
     48 H19       -15.0281   -0.5025   -4.7685 H         1 <0>         0.0550
     49 H20       -17.1719   -2.9571   -6.3938 H         1 <0>         0.0912
     50 H21       -17.1659   -2.6398   -4.6424 H         1 <0>         0.0444
     51 H22       -17.1084   -1.2828   -5.7929 H         1 <0>         0.0437
@<TRIPOS>BOND
     1    1    2 1
     2    1   30 1
     3    1   31 1
     4    1   32 1
     5    2    6 1
     6    2    3 2
     7    3    4 1
     8    3    7 1
     9    4    5 2
    10    4   33 1
    11    5    6 1
    12    5   34 1
    13    7    8 2
    14    7    9 am
    15    9   10 1
    16    9   35 1
    17   10   15 ar
    18   10   11 ar
    19   11   12 ar
    20   11   36 1
    21   12   13 ar
    22   12   37 1
    23   13   14 ar
    24   13   16 1
    25   14   15 ar
    26   14   38 1
    27   15   39 1
    28   16   17 2
    29   16   18 am
    30   18   19 1
    31   18   20 1
    32   19   40 1
    33   19   41 1
    34   19   42 1
    35   20   21 1
    36   20   43 1
    37   20   44 1
    38   21   25 1
    39   21   22 2
    40   22   23 1
    41   23   24 2
    42   23   26 1
    43   24   25 1
    44   26   27 1
    45   26   45 1
    46   26   46 1
    47   27   28 1
    48   27   47 1
    49   27   48 1
    50   28   29 1
    51   29   49 1
    52   29   50 1
    53   29   51 1
