@<TRIPOS>MOLECULE
ZINC66212407
   52    53     0     0     0
SMALL
USER_CHARGES

@<TRIPOS>ATOM
      1 C1         -0.0158    0.4613    0.4205 C.3       1 <0>        -0.1807
      2 C2          0.6672   -0.8742    0.7219 C.3       1 <0>         0.0555
      3 C3          1.6801   -0.6852    1.8529 C.3       1 <0>        -0.1807
      4 C4         -0.3850   -1.9008    1.1459 C.3       1 <0>        -0.1774
      5 N1          1.3606   -1.3522   -0.4817 N.4       1 <0>        -0.4907
      6 C5          2.3708   -0.3664   -0.8888 C.3       1 <0>        -0.0365
      7 C6          3.0822   -0.8568   -2.1235 C.2       1 <0>         0.4995
      8 O1          2.7776   -1.9225   -2.6159 O.2       1 <0>        -0.5065
      9 N2          4.0569   -0.1111   -2.6806 N.am      1 <0>        -0.6451
     10 C7          4.7804   -0.6066   -3.7647 C.ar      1 <0>         0.1416
     11 C8          4.1488   -1.4024   -4.7153 C.ar      1 <0>        -0.1213
     12 C9          4.8602   -1.8932   -5.7868 C.ar      1 <0>        -0.0405
     13 C10         6.2181   -1.5909   -5.9195 C.ar      1 <0>        -0.1292
     14 C11         6.8493   -0.7908   -4.9632 C.ar      1 <0>        -0.0650
     15 C12         6.1310   -0.2993   -3.8966 C.ar      1 <0>        -0.1369
     16 C13         6.9841   -2.1158   -7.0668 C.2       1 <0>         0.5541
     17 O2          6.4337   -2.8120   -7.8978 O.2       1 <0>        -0.5312
     18 N3          8.2936   -1.8232   -7.1933 N.am      1 <0>        -0.7173
     19 C14         9.0539   -2.3442   -8.3321 C.3       1 <0>         0.1088
     20 C15        10.5048   -1.8679   -8.2375 C.3       1 <0>         0.0670
     21 H1         10.5322   -0.7819   -8.1487 H         1 <0>         0.0888
     22 C16        11.2843   -2.3105   -9.4943 C.3       1 <0>        -0.1488
     23 C17        12.6632   -2.7116   -8.9027 C.3       1 <0>        -0.1567
     24 C18        12.2374   -3.2881   -7.5290 C.3       1 <0>         0.0487
     25 O3         11.1389   -2.4646   -7.1001 O.3       1 <0>        -0.3787
     26 H2          0.7338    1.1927    0.1184 H         1 <0>         0.0814
     27 H3         -0.7374    0.3267   -0.3853 H         1 <0>         0.0850
     28 H4         -0.5303    0.8160    1.3135 H         1 <0>         0.1098
     29 H5          1.1656   -0.3305    2.7459 H         1 <0>         0.1098
     30 H6          2.1667   -1.6366    2.0676 H         1 <0>         0.0849
     31 H7          2.4297    0.0462    1.5508 H         1 <0>         0.0813
     32 H8         -1.1067   -2.0355    0.3401 H         1 <0>         0.0846
     33 H9          0.1015   -2.8523    1.3606 H         1 <0>         0.0845
     34 H10        -0.8995   -1.5462    2.0389 H         1 <0>         0.1096
     35 H11         1.8110   -2.2329   -0.2829 H         1 <0>         0.4348
     36 H12         1.8843    0.5850   -1.1035 H         1 <0>         0.1667
     37 H13         3.0925   -0.2318   -0.0831 H         1 <0>         0.1671
     38 H14         4.2551    0.7703   -2.3274 H         1 <0>         0.4221
     39 H15         3.0994   -1.6357   -4.6121 H         1 <0>         0.1446
     40 H16         4.3695   -2.5115   -6.5240 H         1 <0>         0.1460
     41 H17         7.8987   -0.5556   -5.0626 H         1 <0>         0.1376
     42 H18         6.6173    0.3221   -3.1592 H         1 <0>         0.1378
     43 H19         8.7327   -1.2678   -6.5303 H         1 <0>         0.4030
     44 H20         9.0276   -3.4338   -8.3186 H         1 <0>         0.0765
     45 H21         8.6122   -1.9816   -9.2603 H         1 <0>         0.0829
     46 H22        10.8023   -3.1654   -9.9687 H         1 <0>         0.0838
     47 H23        11.3893   -1.4838  -10.1969 H         1 <0>         0.0890
     48 H24        13.1471   -3.4724   -9.5151 H         1 <0>         0.0881
     49 H25        13.3067   -1.8403   -8.7807 H         1 <0>         0.0814
     50 H26        11.9152   -4.3238   -7.6368 H         1 <0>         0.0632
     51 H27        13.0608   -3.2192   -6.8182 H         1 <0>         0.0889
     52 H28         0.6926   -1.4768   -1.2276 H         1 <0>         0.4344
@<TRIPOS>BOND
     1    1    2 1
     2    1   26 1
     3    1   27 1
     4    1   28 1
     5    2    3 1
     6    2    4 1
     7    2    5 1
     8    3   29 1
     9    3   30 1
    10    3   31 1
    11    4   32 1
    12    4   33 1
    13    4   34 1
    14    5    6 1
    15    5   35 1
    16    5   52 1
    17    6    7 1
    18    6   36 1
    19    6   37 1
    20    7    8 2
    21    7    9 am
    22    9   10 1
    23    9   38 1
    24   10   15 ar
    25   10   11 ar
    26   11   12 ar
    27   11   39 1
    28   12   13 ar
    29   12   40 1
    30   13   14 ar
    31   13   16 1
    32   14   15 ar
    33   14   41 1
    34   15   42 1
    35   16   17 2
    36   16   18 am
    37   18   19 1
    38   18   43 1
    39   19   20 1
    40   19   44 1
    41   19   45 1
    42   20   21 1
    43   20   25 1
    44   20   22 1
    45   22   23 1
    46   22   46 1
    47   22   47 1
    48   23   24 1
    49   23   48 1
    50   23   49 1
    51   24   25 1
    52   24   50 1
    53   24   51 1
