@<TRIPOS>MOLECULE
ZINC09158253
   46    50     0     0     0
SMALL
USER_CHARGES

@<TRIPOS>ATOM
      1 C1         -0.0184    1.5028    0.0103 C.3       1 <0>        -0.1031
      2 C2          0.0021   -0.0041    0.0020 C.2       1 <0>         0.1502
      3 C3          0.0078   -0.7894   -1.0852 C.2       1 <0>        -0.2601
      4 C4          0.0272   -2.1358   -0.6534 C.2       1 <0>         0.2806
      5 N1          0.0336   -2.1404    0.6476 N.2       1 <0>        -0.2516
      6 N2          0.0238   -0.8082    1.0900 N.pl3     1 <0>        -0.4569
      7 H1          0.0297   -0.5152    2.0147 H         1 <0>         0.4526
      8 O1          0.0353   -3.1727   -1.5331 O.3       1 <0>        -0.2086
      9 C5         -0.2389   -2.9029   -2.8248 C.2       1 <0>         0.4572
     10 C6         -0.2738   -1.6600   -3.3549 C.2       1 <0>        -0.2566
     11 C7         -0.0029   -0.4240   -2.5431 C.3       1 <0>         0.1295
     12 C8          1.2813    0.2239   -2.9503 C.ar      1 <0>        -0.1289
     13 C9          2.5812   -0.2340   -2.9396 C.ar      1 <0>        -0.0437
     14 C10         3.5622    0.6406   -3.3942 C.ar      1 <0>        -0.1457
     15 C11         3.2454    1.9091   -3.8359 C.ar      1 <0>        -0.0809
     16 C12         1.9406    2.3765   -3.8504 C.ar      1 <0>        -0.1415
     17 C13         0.9462    1.5085   -3.3966 C.ar      1 <0>         0.1543
     18 N3         -0.4199    1.7088   -3.3043 N.am      1 <0>        -0.5478
     19 C14        -1.0583    0.6252   -2.8139 C.2       1 <0>         0.5321
     20 O2         -2.2515    0.5139   -2.6266 O.2       1 <0>        -0.4555
     21 C15        -1.0937    2.9504   -3.6924 C.3       1 <0>         0.1492
     22 C16        -1.4874    2.8753   -5.1451 C.ar      1 <0>        -0.1081
     23 C17        -0.7088    3.4946   -6.1050 C.ar      1 <0>        -0.0756
     24 C18        -1.0692    3.4262   -7.4374 C.ar      1 <0>        -0.1098
     25 C19        -2.2096    2.7373   -7.8116 C.ar      1 <0>        -0.0136
     26 C20        -2.9887    2.1172   -6.8517 C.ar      1 <0>        -0.1043
     27 C21        -2.6248    2.1820   -5.5185 C.ar      1 <0>        -0.0168
     28 Cl1        -3.5988    1.3988   -4.3136 Cl        1 <0>        -0.0130
     29 Cl2        -2.6624    2.6520   -9.4853 Cl        1 <0>        -0.0547
     30 C22        -0.5813   -1.5147   -4.7459 C.1       1 <0>         0.2645
     31 N4         -0.8252   -1.3995   -5.8494 N.1       1 <0>        -0.4254
     32 N5         -0.4998   -3.9618   -3.6583 N.pl3     1 <0>        -0.8246
     33 H2          1.0042    1.8801    0.0026 H         1 <0>         0.0944
     34 H3         -0.5455    1.8639   -0.8728 H         1 <0>         0.0846
     35 H4         -0.5286    1.8543    0.9071 H         1 <0>         0.0838
     36 H5          2.8269   -1.2273   -2.5941 H         1 <0>         0.1318
     37 H6          4.5936    0.3204   -3.4020 H         1 <0>         0.1255
     38 H7          4.0378    2.5571   -4.1803 H         1 <0>         0.1265
     39 H8          1.7032    3.3711   -4.1981 H         1 <0>         0.1312
     40 H9         -1.9857    3.0862   -3.0808 H         1 <0>         0.1071
     41 H10        -0.4184    3.7926   -3.5420 H         1 <0>         0.1030
     42 H11         0.1813    4.0323   -5.8135 H         1 <0>         0.1413
     43 H12        -0.4609    3.9108   -8.1868 H         1 <0>         0.1418
     44 H13        -3.8788    1.5795   -7.1432 H         1 <0>         0.1428
     45 H14        -0.4831   -4.8676   -3.3116 H         1 <0>         0.4146
     46 H15        -0.7010   -3.8044   -4.5940 H         1 <0>         0.4281
@<TRIPOS>BOND
     1    1    2 1
     2    1   33 1
     3    1   34 1
     4    1   35 1
     5    2    6 1
     6    2    3 2
     7    3   11 1
     8    3    4 1
     9    4    5 2
    10    4    8 1
    11    5    6 1
    12    6    7 1
    13    8    9 1
    14    9   10 2
    15    9   32 1
    16   10   11 1
    17   10   30 1
    18   11   19 1
    19   11   12 1
    20   12   17 ar
    21   12   13 ar
    22   13   14 ar
    23   13   36 1
    24   14   15 ar
    25   14   37 1
    26   15   16 ar
    27   15   38 1
    28   16   17 ar
    29   16   39 1
    30   17   18 1
    31   18   19 am
    32   18   21 1
    33   19   20 2
    34   21   22 1
    35   21   40 1
    36   21   41 1
    37   22   27 ar
    38   22   23 ar
    39   23   24 ar
    40   23   42 1
    41   24   25 ar
    42   24   43 1
    43   25   26 ar
    44   25   29 1
    45   26   27 ar
    46   26   44 1
    47   27   28 1
    48   30   31 3
    49   32   45 1
    50   32   46 1
