@<TRIPOS>MOLECULE
ZINC39956927
   25    27     0     0     0
SMALL
USER_CHARGES

@<TRIPOS>ATOM
      1 C1         -0.0171    1.3979   -0.0151 C.ar      1 <0>        -0.1295
      2 C2          1.1266    2.1253   -0.0157 C.ar      1 <0>        -0.0103
      3 C3          2.3772    1.4663   -0.0210 C.ar      1 <0>        -0.1284
      4 C4          3.6845    1.9331   -0.0232 C.2       1 <0>         0.1226
      5 C5          4.5577    0.6978   -0.0296 C.3       1 <0>         0.0716
      6 N1          3.6413   -0.4466   -0.0306 N.pl3     1 <0>        -0.5685
      7 C6          2.4045   -0.0110   -0.0257 C.ar      1 <0>         0.3339
      8 C7          1.1610   -0.7037   -0.0253 C.ar      1 <0>        -0.1991
      9 C8          0.0020   -0.0040   -0.0196 C.ar      1 <0>         0.1149
     10 Cl1        -1.5040   -0.8675   -0.0185 Cl        1 <0>         0.0153
     11 C9          4.1103    3.2799   -0.0209 C.2       1 <0>        -0.1515
     12 C10         4.4637    4.0390    1.0804 C.2       1 <0>         0.0004
     13 C11         4.8316    5.3696    0.5647 C.2       1 <0>         0.5568
     14 O1          5.1995    6.3118    1.2379 O.2       1 <0>        -0.3934
     15 N2          4.6943    5.3701   -0.7719 N.am      1 <0>        -0.6677
     16 C12         4.2759    4.1670   -1.2014 C.2       1 <0>         0.5827
     17 O2          4.0661    3.8586   -2.3566 O.2       1 <0>        -0.4204
     18 Cl2         4.4716    3.5265    2.7391 Cl        1 <0>         0.0667
     19 H1         -0.9672    1.9113   -0.0065 H         1 <0>         0.1713
     20 H2          1.0826    3.2044   -0.0125 H         1 <0>         0.1677
     21 H3          5.1787    0.6819   -0.9252 H         1 <0>         0.1900
     22 H4          5.1839    0.6763    0.8623 H         1 <0>         0.1860
     23 H5          1.1422   -1.7835   -0.0288 H         1 <0>         0.1766
     24 H6          4.8757    6.1302   -1.3464 H         1 <0>         0.4512
     25 H7          3.9079   -1.3793   -0.0346 H         1 <0>         0.4612
@<TRIPOS>BOND
     1    1    9 ar
     2    1    2 ar
     3    1   19 1
     4    2    3 ar
     5    2   20 1
     6    3    7 ar
     7    3    4 2
     8    4    5 1
     9    4   11 1
    10    5    6 1
    11    5   21 1
    12    5   22 1
    13    6    7 2
    14    6   25 1
    15    7    8 ar
    16    8    9 ar
    17    8   23 1
    18    9   10 1
    19   11   16 1
    20   11   12 2
    21   12   13 1
    22   12   18 1
    23   13   14 2
    24   13   15 am
    25   15   16 am
    26   15   24 1
    27   16   17 2
