@<TRIPOS>MOLECULE
ZINC12129849
   63    67     0     0     0
SMALL
USER_CHARGES

@<TRIPOS>ATOM
      1 C1         -0.5303    1.7382    0.1200 C.3       1 <0>        -0.1390
      2 C2         -0.0846    0.3155   -0.1003 C.2       1 <0>         0.1621
      3 C3          0.2351   -0.0860   -1.3475 C.2       1 <0>        -0.2690
      4 C4          0.6551   -1.4221   -1.5603 C.2       1 <0>         0.4105
      5 O1          0.9524   -1.8190   -2.6760 O.2       1 <0>        -0.5012
      6 C5          0.7221   -2.3158   -0.3938 C.2       1 <0>        -0.2747
      7 C6          0.3733   -1.8059    0.8401 C.2       1 <0>         0.1948
      8 N1         -0.0106   -0.5242    0.9616 N.pl3     1 <0>        -0.4582
      9 C7         -0.3676   -0.0171    2.2888 C.3       1 <0>         0.1167
     10 C8          0.7832   -0.2366    3.2367 C.ar      1 <0>        -0.1234
     11 C9          0.7077   -1.2031    4.1922 C.ar      1 <0>        -0.0893
     12 C10         1.7615   -1.4207    5.0774 C.ar      1 <0>        -0.1294
     13 C11         2.8970   -0.6726    5.0127 C.ar      1 <0>        -0.0793
     14 C12         3.0114    0.3344    4.0396 C.ar      1 <0>        -0.0558
     15 C13         1.9419    0.5516    3.1351 C.ar      1 <0>        -0.0270
     16 C14         2.0589    1.5551    2.1580 C.ar      1 <0>        -0.1297
     17 C15         3.1965    2.2989    2.0896 C.ar      1 <0>        -0.1000
     18 C16         4.2508    2.0810    2.9749 C.ar      1 <0>        -0.1141
     19 C17         4.1678    1.1273    3.9423 C.ar      1 <0>        -0.0991
     20 C18         0.4290   -2.6902    2.0591 C.3       1 <0>         0.0779
     21 O2          0.6868   -4.0376    1.6588 O.3       1 <0>        -0.3676
     22 C19         0.6508   -4.9799    2.7325 C.3       1 <0>         0.0346
     23 C20         1.1496   -3.7178   -0.5391 C.2       1 <0>         0.6253
     24 O3          2.3336   -3.9956   -0.5391 O.2       1 <0>        -0.5384
     25 N2          0.2286   -4.6928   -0.6721 N.am      1 <0>        -0.7100
     26 C21         0.6481   -6.0957   -0.7149 C.3       1 <0>         0.1548
     27 C22        -0.5825   -6.9915   -0.8698 C.3       1 <0>        -0.0925
     28 H1         -1.3097   -6.7787   -0.0862 H         1 <0>         0.1291
     29 C23        -0.1836   -8.4490   -0.8405 C.ar      1 <0>        -0.1380
     30 C24         0.4237   -9.2346    0.1133 C.ar      1 <0>        -0.0594
     31 C25         0.6691  -10.5714   -0.1477 C.ar      1 <0>        -0.1396
     32 C26         0.3028  -11.1128   -1.3666 C.ar      1 <0>        -0.0802
     33 C27        -0.3058  -10.3279   -2.3238 C.ar      1 <0>        -0.1387
     34 C28        -0.5562   -8.9810   -2.0683 C.ar      1 <0>         0.1482
     35 N3         -1.1486   -7.9970   -2.8606 N.am      1 <0>        -0.6620
     36 C29        -1.2058   -6.8048   -2.2368 C.2       1 <0>         0.5307
     37 O4         -1.6682   -5.7763   -2.6834 O.2       1 <0>        -0.4845
     38 H2          0.3362    2.3593    0.3470 H         1 <0>         0.0947
     39 H3         -1.0178    2.1099   -0.7812 H         1 <0>         0.1016
     40 H4         -1.2316    1.7742    0.9537 H         1 <0>         0.0842
     41 H5          0.1711    0.6041   -2.1758 H         1 <0>         0.1550
     42 H6         -0.5865    1.0487    2.2237 H         1 <0>         0.1223
     43 H7         -1.2467   -0.5468    2.6558 H         1 <0>         0.1027
     44 H8         -0.1824   -1.8103    4.2655 H         1 <0>         0.1288
     45 H9          1.6761   -2.1941    5.8263 H         1 <0>         0.1306
     46 H10         3.7055   -0.8520    5.7059 H         1 <0>         0.1328
     47 H11         1.2504    1.7347    1.4649 H         1 <0>         0.1300
     48 H12         3.2838    3.0693    1.3379 H         1 <0>         0.1266
     49 H13         5.1427    2.6852    2.8988 H         1 <0>         0.1273
     50 H14         4.9924    0.9703    4.6219 H         1 <0>         0.1309
     51 H15         1.2259   -2.3486    2.7197 H         1 <0>         0.1010
     52 H16        -0.5243   -2.6437    2.5856 H         1 <0>         0.0763
     53 H17         1.3415   -4.6657    3.5150 H         1 <0>         0.0460
     54 H18        -0.3596   -5.0298    3.1384 H         1 <0>         0.0455
     55 H19         0.9429   -5.9629    2.3632 H         1 <0>         0.0909
     56 H20        -0.7120   -4.4655   -0.7395 H         1 <0>         0.4009
     57 H21         1.3180   -6.2491   -1.5610 H         1 <0>         0.0689
     58 H22         1.1671   -6.3481    0.2098 H         1 <0>         0.0824
     59 H23         0.7079   -8.8083    1.0640 H         1 <0>         0.1296
     60 H24         1.1456  -11.1901    0.5983 H         1 <0>         0.1315
     61 H25         0.4948  -12.1559   -1.5701 H         1 <0>         0.1324
     62 H26        -0.5885  -10.7580   -3.2733 H         1 <0>         0.1279
     63 H27        -1.4823   -8.1537   -3.7579 H         1 <0>         0.4150
@<TRIPOS>BOND
     1    1    2 1
     2    1   38 1
     3    1   39 1
     4    1   40 1
     5    2    8 1
     6    2    3 2
     7    3    4 1
     8    3   41 1
     9    4    5 2
    10    4    6 1
    11    6    7 2
    12    6   23 1
    13    7    8 1
    14    7   20 1
    15    8    9 1
    16    9   10 1
    17    9   42 1
    18    9   43 1
    19   10   15 ar
    20   10   11 ar
    21   11   12 ar
    22   11   44 1
    23   12   13 ar
    24   12   45 1
    25   13   14 ar
    26   13   46 1
    27   14   19 ar
    28   14   15 ar
    29   15   16 ar
    30   16   17 ar
    31   16   47 1
    32   17   18 ar
    33   17   48 1
    34   18   19 ar
    35   18   49 1
    36   19   50 1
    37   20   21 1
    38   20   51 1
    39   20   52 1
    40   21   22 1
    41   22   53 1
    42   22   54 1
    43   22   55 1
    44   23   24 2
    45   23   25 am
    46   25   26 1
    47   25   56 1
    48   26   27 1
    49   26   57 1
    50   26   58 1
    51   27   28 1
    52   27   36 1
    53   27   29 1
    54   29   34 ar
    55   29   30 ar
    56   30   31 ar
    57   30   59 1
    58   31   32 ar
    59   31   60 1
    60   32   33 ar
    61   32   61 1
    62   33   34 ar
    63   33   62 1
    64   34   35 1
    65   35   36 am
    66   35   63 1
    67   36   37 2
