@<TRIPOS>MOLECULE
ZINC37539401
   41    42     0     0     0
SMALL
USER_CHARGES

@<TRIPOS>ATOM
      1 C1          1.6775   -2.1167    2.1660 C.3       1 <0>        -0.1825
      2 C2          0.5673   -1.7692    1.1722 C.3       1 <0>         0.1521
      3 H1         -0.3567   -2.2658    1.4683 H         1 <0>         0.0762
      4 C3          0.9715   -2.2308   -0.2315 C.3       1 <0>        -0.1317
      5 C4         -0.0768   -1.7580   -1.2412 C.3       1 <0>        -0.1202
      6 C5         -0.1402   -0.2290   -1.2352 C.3       1 <0>        -0.1353
      7 C6         -0.5570    0.2554    0.1571 C.3       1 <0>         0.1166
      8 N1          0.3606   -0.3146    1.1535 N.pl3     1 <0>        -0.9989
      9 S1          1.1499    0.6637    2.2316 S.o2      1 <0>         2.7711
     10 O1          2.3236   -0.0325    2.6278 O.2       1 <0>        -0.9485
     11 O2          1.1925    1.9589    1.6488 O.2       1 <0>        -0.9660
     12 N2          0.1925    0.7816    3.5776 N.pl3     1 <0>        -1.0085
     13 C7          0.4584   -0.0664    4.7423 C.3       1 <0>         0.0757
     14 C8         -0.9205    1.7339    3.6037 C.3       1 <0>         0.1324
     15 H2         -0.9999    2.2484    2.6461 H         1 <0>         0.1360
     16 C9         -0.7255    2.7558    4.7473 C.3       1 <0>        -0.1606
     17 C10        -2.1621    2.9369    5.2987 C.3       1 <0>        -0.0022
     18 N3         -2.7360    1.5700    5.2075 N.4       1 <0>        -0.5167
     19 C11        -2.2381    1.0072    3.9310 C.3       1 <0>        -0.0255
     20 H3          1.4480   -1.6757    3.1360 H         1 <0>         0.0643
     21 H4          1.7488   -3.1997    2.2670 H         1 <0>         0.0717
     22 H5          2.6266   -1.7224    1.8029 H         1 <0>         0.0968
     23 H6          1.9419   -1.8063   -0.4887 H         1 <0>         0.0718
     24 H7          1.0327   -3.3189   -0.2530 H         1 <0>         0.0802
     25 H8          0.1956   -2.1063   -2.2375 H         1 <0>         0.0717
     26 H9         -1.0516   -2.1629   -0.9692 H         1 <0>         0.0645
     27 H10         0.8407    0.1768   -1.4830 H         1 <0>         0.0714
     28 H11        -0.8702    0.1078   -1.9712 H         1 <0>         0.0801
     29 H12        -0.5079    1.3436    0.1952 H         1 <0>         0.0902
     30 H13        -1.5740   -0.0742    0.3693 H         1 <0>         0.0684
     31 H14         1.2095    0.4085    5.3735 H         1 <0>         0.0735
     32 H15        -0.4615   -0.2014    5.3111 H         1 <0>         0.0634
     33 H16         0.8252   -1.0371    4.4088 H         1 <0>         0.0934
     34 H17        -0.0653    2.3535    5.5157 H         1 <0>         0.1080
     35 H18        -0.3392    3.6987    4.3603 H         1 <0>         0.1276
     36 H19        -2.1368    3.2752    6.3346 H         1 <0>         0.1431
     37 H20        -2.7270    3.6334    4.6791 H         1 <0>         0.1416
     38 H21        -2.4200    1.0075    5.9833 H         1 <0>         0.4310
     39 H22        -2.9653    1.1817    3.1379 H         1 <0>         0.1457
     40 H23        -2.0551   -0.0616    4.0420 H         1 <0>         0.1419
     41 H24        -3.7439    1.6158    5.1970 H         1 <0>         0.4365
@<TRIPOS>BOND
     1    1    2 1
     2    1   20 1
     3    1   21 1
     4    1   22 1
     5    2    3 1
     6    2    8 1
     7    2    4 1
     8    4    5 1
     9    4   23 1
    10    4   24 1
    11    5    6 1
    12    5   25 1
    13    5   26 1
    14    6    7 1
    15    6   27 1
    16    6   28 1
    17    7    8 1
    18    7   29 1
    19    7   30 1
    20    8    9 1
    21    9   10 2
    22    9   11 2
    23    9   12 1
    24   12   13 1
    25   12   14 1
    26   13   31 1
    27   13   32 1
    28   13   33 1
    29   14   15 1
    30   14   19 1
    31   14   16 1
    32   16   17 1
    33   16   34 1
    34   16   35 1
    35   17   18 1
    36   17   36 1
    37   17   37 1
    38   18   19 1
    39   18   38 1
    40   18   41 1
    41   19   39 1
    42   19   40 1
