@<TRIPOS>MOLECULE
ZINC54825388
   38    39     0     0     0
SMALL
USER_CHARGES

@<TRIPOS>ATOM
      1 C1          0.0109    1.8791    0.3120 C.3       1 <0>        -0.1376
      2 C2          1.4764    2.3162    0.2645 C.3       1 <0>        -0.1169
      3 C3          2.2383    1.6729    1.4249 C.3       1 <0>        -0.1479
      4 C4          2.1564    0.1497    1.3067 C.3       1 <0>         0.0242
      5 H1          2.5992   -0.1658    0.3619 H         1 <0>         0.1682
      6 C5          0.6909   -0.2874    1.3542 C.3       1 <0>        -0.0004
      7 H2          0.6325   -1.3726    1.2700 H         1 <0>         0.1418
      8 C6         -0.0710    0.3559    0.1938 C.3       1 <0>        -0.1120
      9 C7          0.0929    0.1386    2.6300 C.1       1 <0>         0.1595
     10 N1         -0.3686    0.4674    3.6146 N.1       1 <0>        -0.3661
     11 N2          2.8879   -0.4680    2.4208 N.4       1 <0>        -0.5072
     12 C8          4.3197   -0.1644    2.2946 C.3       1 <0>         0.0006
     13 C9          4.8653   -0.8299    1.0345 C.3       1 <0>        -0.1372
     14 C10         6.2750   -0.3117    0.7384 C.3       1 <0>        -0.6106
     15 S1          7.3748   -0.7855    2.1054 S.o2      1 <0>         2.4165
     16 O1          7.4018   -2.2035    2.1929 O.2       1 <0>        -0.9167
     17 O2          8.5984   -0.0763    1.9675 O.2       1 <0>        -0.9135
     18 C11         6.4852   -0.1341    3.5500 C.3       1 <0>        -0.6104
     19 C12         5.0521   -0.6720    3.5331 C.3       1 <0>        -0.1358
     20 H3         -0.4319    2.1946    1.2567 H         1 <0>         0.0685
     21 H4         -0.5319    2.3374   -0.5147 H         1 <0>         0.0909
     22 H5          1.9192    2.0008   -0.6802 H         1 <0>         0.0831
     23 H6          1.5348    3.4014    0.3487 H         1 <0>         0.0903
     24 H7          3.2824    1.9843    1.3910 H         1 <0>         0.0962
     25 H8          1.7955    1.9884    2.3696 H         1 <0>         0.0878
     26 H9         -1.1151    0.0445    0.2276 H         1 <0>         0.0977
     27 H10         0.3718    0.0404   -0.7509 H         1 <0>         0.1014
     28 H11         2.5421   -0.1010    3.2948 H         1 <0>         0.4296
     29 H12         4.4523    0.9146    2.2161 H         1 <0>         0.1545
     30 H13         4.9000   -1.9094    1.1815 H         1 <0>         0.1163
     31 H14         4.2116   -0.6016    0.1927 H         1 <0>         0.1142
     32 H15         6.6377   -0.7508   -0.1910 H         1 <0>         0.1596
     33 H16         6.2531    0.7743    0.6470 H         1 <0>         0.1458
     34 H17         6.9856   -0.4569    4.4630 H         1 <0>         0.1588
     35 H18         6.4670    0.9549    3.5070 H         1 <0>         0.1454
     36 H19         4.5282   -0.3341    4.4272 H         1 <0>         0.1125
     37 H20         5.0748   -1.7617    3.5189 H         1 <0>         0.1150
     38 H21         2.7528   -1.4676    2.3988 H         1 <0>         0.4335
@<TRIPOS>BOND
     1    1    8 1
     2    1    2 1
     3    1   20 1
     4    1   21 1
     5    2    3 1
     6    2   22 1
     7    2   23 1
     8    3    4 1
     9    3   24 1
    10    3   25 1
    11    4    5 1
    12    4    6 1
    13    4   11 1
    14    6    7 1
    15    6    8 1
    16    6    9 1
    17    8   26 1
    18    8   27 1
    19    9   10 3
    20   11   12 1
    21   11   28 1
    22   11   38 1
    23   12   19 1
    24   12   13 1
    25   12   29 1
    26   13   14 1
    27   13   30 1
    28   13   31 1
    29   14   15 1
    30   14   32 1
    31   14   33 1
    32   15   16 2
    33   15   17 2
    34   15   18 1
    35   18   19 1
    36   18   34 1
    37   18   35 1
    38   19   36 1
    39   19   37 1
