@<TRIPOS>MOLECULE
ZINC24131882
   48    50     0     0     0
SMALL
USER_CHARGES
N-cyclopropyl-4-[[[2-[(3S)-1,1-dioxothiolan-3-yl]acetyl]amino]carbamoyl]benzenesulfonamide
@<TRIPOS>ATOM
      1 C1         -0.0126    1.0758    0.0080 C.ar      1 <0>        -0.0758
      2 C2          1.1717    1.7833    0.0004 C.ar      1 <0>        -0.0223
      3 C3          1.1547    3.1668    0.0076 C.ar      1 <0>        -0.6599
      4 C4         -0.0484    3.8499    0.0227 C.ar      1 <0>        -0.0275
      5 C5         -1.2399    3.1544    0.0303 C.ar      1 <0>        -0.1066
      6 C6         -1.2298    1.7588    0.0174 C.ar      1 <0>        -0.0712
      7 C7         -2.5029    1.0070    0.0194 C.2       1 <0>         0.5578
      8 O1         -2.4910   -0.2084    0.0127 O.2       1 <0>        -0.5313
      9 N1         -3.6766    1.6695    0.0285 N.am      1 <0>        -0.5276
     10 N2         -4.8830    0.9571    0.0304 N.am      1 <0>        -0.5317
     11 C8         -6.0567    1.6195    0.0395 C.2       1 <0>         0.5162
     12 O2         -6.0685    2.8323    0.0461 O.2       1 <0>        -0.5413
     13 C9         -7.3544    0.8533    0.0415 C.3       1 <0>        -0.1251
     14 C10        -8.5269    1.8361    0.0524 C.3       1 <0>        -0.0786
     15 H1         -8.4178    2.5223    0.9052 H         1 <0>         0.1060
     16 C11        -8.5237    2.6491   -1.2528 C.3       1 <0>        -0.1398
     17 C12        -9.8804    3.4026   -1.3574 C.3       1 <0>        -0.5784
     18 S1        -11.0370    2.0990   -0.7592 S.o2      1 <0>         2.3836
     19 O3        -11.5210    1.3632   -1.8743 O.2       1 <0>        -0.9352
     20 O4        -11.9613    2.6824    0.1489 O.2       1 <0>        -0.9374
     21 C13        -9.8544    1.0508    0.1816 C.3       1 <0>        -0.5880
     22 S2          2.6719    4.0627   -0.0021 S.o2      1 <0>         2.6930
     23 O5          2.3936    5.3388    0.5578 O.2       1 <0>        -0.9483
     24 O6          3.6599    3.1941    0.5352 O.2       1 <0>        -0.9515
     25 N3          3.0787    4.3196   -1.5867 N.pl3     1 <0>        -1.1181
     26 C14         2.2315    5.1637   -2.4328 C.3       1 <0>         0.0168
     27 C15         2.1203    4.7940   -3.9133 C.3       1 <0>        -0.1368
     28 C16         2.9245    6.0250   -3.4906 C.3       1 <0>        -0.1335
     29 H2          0.0021   -0.0041    0.0020 H         1 <0>         0.1504
     30 H3          2.1143    1.2561   -0.0114 H         1 <0>         0.1513
     31 H4         -0.0548    4.9298    0.0289 H         1 <0>         0.1489
     32 H5         -2.1783    3.6888    0.0422 H         1 <0>         0.1371
     33 H6         -3.6874    2.7694    0.0344 H         1 <0>         0.4576
     34 H7         -4.8722   -0.1428    0.0245 H         1 <0>         0.4612
     35 H8         -7.4108    0.2252   -0.8598 H         1 <0>         0.1099
     36 H9         -7.4023    0.2155    0.9364 H         1 <0>         0.1121
     37 H10        -7.6916    3.3683   -1.2347 H         1 <0>         0.1179
     38 H11        -8.4016    1.9686   -2.1084 H         1 <0>         0.0844
     39 H12        -9.8531    4.2974   -0.7182 H         1 <0>         0.1420
     40 H13       -10.0535    3.7029   -2.4014 H         1 <0>         0.1434
     41 H14        -9.7321    0.0493   -0.2565 H         1 <0>         0.1443
     42 H15       -10.1224    0.9559    1.2442 H         1 <0>         0.1466
     43 H16         3.8879    3.7259   -2.0370 H         1 <0>         0.4305
     44 H17         1.5306    5.3366   -1.6028 H         1 <0>         0.1130
     45 H18         2.5389    3.7893   -4.0728 H         1 <0>         0.1078
     46 H19         1.0625    4.8026   -4.2149 H         1 <0>         0.1093
     47 H20         2.5315    7.0513   -3.4427 H         1 <0>         0.1127
     48 H21         4.0079    6.0380   -3.3006 H         1 <0>         0.1120
@<TRIPOS>BOND
     1    1    6 ar
     2    1    2 ar
     3    1   29 1
     4    2    3 ar
     5    2   30 1
     6    3    4 ar
     7    3   22 1
     8    4    5 ar
     9    4   31 1
    10    5    6 ar
    11    5   32 1
    12    6    7 1
    13    7    8 2
    14    7    9 am
    15    9   10 1
    16    9   33 1
    17   10   11 am
    18   10   34 1
    19   11   12 2
    20   11   13 1
    21   13   14 1
    22   13   35 1
    23   13   36 1
    24   14   15 1
    25   14   21 1
    26   14   16 1
    27   16   17 1
    28   16   37 1
    29   16   38 1
    30   17   18 1
    31   17   39 1
    32   17   40 1
    33   18   19 2
    34   18   20 2
    35   18   21 1
    36   21   41 1
    37   21   42 1
    38   22   23 2
    39   22   24 2
    40   22   25 1
    41   25   26 1
    42   25   43 1
    43   26   28 1
    44   26   27 1
    45   26   44 1
    46   27   28 1
    47   27   45 1
    48   27   46 1
    49   28   47 1
    50   28   48 1
