@<TRIPOS>MOLECULE
ZINC43255373
   39    40     0     0     0
SMALL
USER_CHARGES

@<TRIPOS>ATOM
      1 C1         -0.4210    1.4824    0.0551 C.3       1 <0>        -0.1228
      2 C2         -0.2929   -0.0190    0.0348 C.ar      1 <0>        -0.0567
      3 C3         -0.2695   -0.6930   -1.1721 C.ar      1 <0>        -0.1172
      4 C4         -0.1521   -2.0702   -1.1960 C.ar      1 <0>        -0.1654
      5 C5         -0.0571   -2.7782   -0.0086 C.ar      1 <0>         0.0655
      6 C6         -0.0801   -2.0997    1.2061 C.ar      1 <0>         0.1210
      7 C7         -0.1932   -0.7188    1.2229 C.ar      1 <0>        -0.1725
      8 O1          0.0129   -2.7901    2.3741 O.3       1 <0>        -0.3090
      9 C8         -0.0175   -2.0278    3.5825 C.3       1 <0>         0.0230
     10 O2          0.0580   -4.1331   -0.0303 O.3       1 <0>        -0.2949
     11 C9         -0.0511   -4.7731   -1.3033 C.3       1 <0>         0.1538
     12 H1         -0.5614   -4.1092   -2.0012 H         1 <0>         0.1415
     13 C10        -0.8383   -6.0499   -1.1578 C.2       1 <0>        -0.2340
     14 C11        -1.7015   -6.6241   -2.0304 C.2       1 <0>        -0.0819
     15 C12        -2.3176   -7.8117   -1.6811 C.2       1 <0>        -0.1517
     16 C13        -2.0391   -8.3663   -0.4749 C.2       1 <0>        -0.0864
     17 S1         -0.8694   -7.2019    0.2056 S.3       1 <0>         0.1110
     18 Cl1        -2.6551   -9.8316    0.2231 Cl        1 <0>         0.0485
     19 C14         1.3474   -5.0939   -1.8345 C.3       1 <0>         0.0184
     20 H2          1.2687   -5.5006   -2.8427 H         1 <0>         0.1600
     21 C15         2.1873   -3.8154   -1.8644 C.3       1 <0>        -0.1925
     22 N1          1.9899   -6.0813   -0.9569 N.4       1 <0>        -0.6355
     23 H3          0.5714    1.9322    0.0258 H         1 <0>         0.0785
     24 H4         -0.9941    1.8099   -0.8124 H         1 <0>         0.0741
     25 H5         -0.9331    1.7911    0.9664 H         1 <0>         0.0718
     26 H6         -0.3435   -0.1424   -2.0982 H         1 <0>         0.1346
     27 H7         -0.1348   -2.5944   -2.1401 H         1 <0>         0.1367
     28 H8         -0.2075   -0.1895    2.1642 H         1 <0>         0.1420
     29 H9         -0.9566   -1.4776    3.6414 H         1 <0>         0.0602
     30 H10         0.0647   -2.6988    4.4375 H         1 <0>         0.1065
     31 H11         0.8161   -1.3256    3.5901 H         1 <0>         0.0595
     32 H12        -1.9055   -6.1608   -2.9844 H         1 <0>         0.1538
     33 H13        -3.0100   -8.2901   -2.3580 H         1 <0>         0.1584
     34 H14         2.2660   -3.4086   -0.8562 H         1 <0>         0.0909
     35 H15         3.1836   -4.0439   -2.2428 H         1 <0>         0.0935
     36 H16         1.7105   -3.0827   -2.5156 H         1 <0>         0.1118
     37 H17         2.9122   -6.2929   -1.3071 H         1 <0>         0.4382
     38 H18         2.0627   -5.7048   -0.0236 H         1 <0>         0.4386
     39 H19         1.4360   -6.9245   -0.9371 H         1 <0>         0.4286
@<TRIPOS>BOND
     1    1    2 1
     2    1   23 1
     3    1   24 1
     4    1   25 1
     5    2    7 ar
     6    2    3 ar
     7    3    4 ar
     8    3   26 1
     9    4    5 ar
    10    4   27 1
    11    5    6 ar
    12    5   10 1
    13    6    7 ar
    14    6    8 1
    15    7   28 1
    16    8    9 1
    17    9   29 1
    18    9   30 1
    19    9   31 1
    20   10   11 1
    21   11   12 1
    22   11   13 1
    23   11   19 1
    24   13   17 1
    25   13   14 2
    26   14   15 1
    27   14   32 1
    28   15   16 2
    29   15   33 1
    30   16   17 1
    31   16   18 1
    32   19   20 1
    33   19   21 1
    34   19   22 1
    35   21   34 1
    36   21   35 1
    37   21   36 1
    38   22   37 1
    39   22   38 1
    40   22   39 1
