@<TRIPOS>MOLECULE
ZINC43246494
   37    39     0     0     0
SMALL
USER_CHARGES

@<TRIPOS>ATOM
      1 C1          0.5524    1.6041   -0.3864 C.3       1 <0>        -0.0894
      2 C2          0.4071    0.1068   -0.2957 C.2       1 <0>        -0.0810
      3 C3         -0.7229   -0.6386   -0.2276 C.2       1 <0>        -0.1884
      4 C4         -0.6148   -2.0144   -0.1503 C.2       1 <0>        -0.0745
      5 C5          0.6182   -2.5776   -0.1449 C.2       1 <0>        -0.2464
      6 S1          1.6786   -1.1458   -0.2581 S.3       1 <0>         0.0822
      7 C6          0.9957   -4.0346   -0.0688 C.3       1 <0>        -0.0252
      8 H1          0.0921   -4.6416   -0.0137 H         1 <0>         0.1460
      9 C7          1.8490   -4.2759    1.1780 C.3       1 <0>        -0.0036
     10 N1          1.0387   -4.0370    2.3797 N.4       1 <0>        -0.6312
     11 S2          1.9422   -4.4919   -1.5472 S.3       1 <0>         0.1207
     12 C8          2.0932   -6.2436   -1.4316 C.2       1 <0>         0.1876
     13 N2          1.6814   -7.0004   -0.4372 N.2       1 <0>        -0.3452
     14 N3          1.9464   -8.2348   -0.6715 N.2       1 <0>        -0.0194
     15 N4          2.5363   -8.3596   -1.8107 N.2       1 <0>        -0.0474
     16 N5          2.6510   -7.0679   -2.3539 N.pl3     1 <0>        -0.2932
     17 C9          3.2209   -6.7085   -3.5836 C.ar      1 <0>         0.1004
     18 C10         2.6905   -5.6540   -4.3143 C.ar      1 <0>        -0.1134
     19 C11         3.2543   -5.3019   -5.5251 C.ar      1 <0>        -0.0934
     20 C12         4.3458   -5.9989   -6.0097 C.ar      1 <0>        -0.0914
     21 C13         4.8764   -7.0497   -5.2841 C.ar      1 <0>        -0.0960
     22 C14         4.3204   -7.4027   -4.0700 C.ar      1 <0>        -0.0864
     23 H2          1.6099    1.8645   -0.4300 H         1 <0>         0.0816
     24 H3          0.0522    1.9639   -1.2855 H         1 <0>         0.0956
     25 H4          0.1001    2.0668    0.4908 H         1 <0>         0.0948
     26 H5         -1.6933   -0.1646   -0.2333 H         1 <0>         0.1487
     27 H6         -1.4994   -2.6315   -0.0946 H         1 <0>         0.1437
     28 H7          2.2068   -5.3055    1.1797 H         1 <0>         0.1511
     29 H8          2.7005   -3.5954    1.1727 H         1 <0>         0.1464
     30 H9          0.2932   -4.7156    2.4230 H         1 <0>         0.4391
     31 H10         1.6200   -4.1233    3.2000 H         1 <0>         0.4429
     32 H11         1.8375   -5.1097   -3.9366 H         1 <0>         0.1370
     33 H12         2.8421   -4.4817   -6.0940 H         1 <0>         0.1447
     34 H13         4.7846   -5.7223   -6.9570 H         1 <0>         0.1422
     35 H14         5.7287   -7.5925   -5.6653 H         1 <0>         0.1452
     36 H15         4.7379   -8.2206   -3.5017 H         1 <0>         0.1409
     37 H16         0.6463   -3.1082    2.3417 H         1 <0>         0.4345
@<TRIPOS>BOND
     1    1    2 1
     2    1   23 1
     3    1   24 1
     4    1   25 1
     5    2    6 1
     6    2    3 2
     7    3    4 1
     8    3   26 1
     9    4    5 2
    10    4   27 1
    11    5    6 1
    12    5    7 1
    13    7    8 1
    14    7    9 1
    15    7   11 1
    16    9   10 1
    17    9   28 1
    18    9   29 1
    19   10   30 1
    20   10   31 1
    21   10   37 1
    22   11   12 1
    23   12   16 1
    24   12   13 2
    25   13   14 1
    26   14   15 2
    27   15   16 1
    28   16   17 1
    29   17   22 ar
    30   17   18 ar
    31   18   19 ar
    32   18   32 1
    33   19   20 ar
    34   19   33 1
    35   20   21 ar
    36   20   34 1
    37   21   22 ar
    38   21   35 1
    39   22   36 1
