@<TRIPOS>MOLECULE
ZINC20469701
   42    43     0     0     0
SMALL
USER_CHARGES
[5-[(3R,5R)-3,5-dimethyl-1-piperidyl]-1,3-dimethyl-pyrazol-4-yl]methanamine
@<TRIPOS>ATOM
      1 C1          0.3189    3.9520   -1.3464 C.3       1 <0>        -0.0893
      2 C2         -0.5929    2.8470   -1.8141 C.2       1 <0>         0.1008
      3 C3         -0.9068    1.6875   -1.0996 C.2       1 <0>        -0.2962
      4 C4         -1.7541    0.9440   -1.8635 C.2       1 <0>         0.2968
      5 N1         -1.9680    1.6223   -3.0138 N.pl3     1 <0>        -0.3710
      6 N2         -1.2264    2.8093   -2.9583 N.2       1 <0>        -0.2703
      7 C5         -2.8202    1.1896   -4.1240 C.3       1 <0>         0.0730
      8 N3         -2.3027   -0.2888   -1.5213 N.pl3     1 <0>        -0.4689
      9 C6         -1.9585   -1.3125   -2.5164 C.3       1 <0>         0.0467
     10 C7         -2.4523   -2.6791   -2.0362 C.3       1 <0>        -0.0854
     11 H1         -1.9620   -2.9350   -1.0854 H         1 <0>         0.0870
     12 C8         -3.9692   -2.6263   -1.8345 C.3       1 <0>        -0.1206
     13 C9         -4.3045   -1.5200   -0.8304 C.3       1 <0>        -0.0895
     14 H2         -5.3956   -1.4486   -0.7101 H         1 <0>         0.0861
     15 C10        -3.7571   -0.1870   -1.3456 C.3       1 <0>         0.0511
     16 C11        -3.6660   -1.8463    0.5212 C.3       1 <0>        -0.1456
     17 C12        -2.1128   -3.7417   -3.0833 C.3       1 <0>        -0.1545
     18 C13        -0.3939    1.3222    0.2696 C.3       1 <0>         0.0993
     19 N4         -1.3070    1.8510    1.2917 N.4       1 <0>        -0.6848
     20 H3          0.7070    3.7085   -0.3463 H         1 <0>         0.0758
     21 H4         -0.2429    4.8967   -1.3018 H         1 <0>         0.0876
     22 H5          1.1581    4.0573   -2.0497 H         1 <0>         0.0903
     23 H6         -2.7973    1.9476   -4.9208 H         1 <0>         0.1097
     24 H7         -3.8529    1.0647   -3.7664 H         1 <0>         0.0889
     25 H8         -2.4503    0.2317   -4.5184 H         1 <0>         0.0922
     26 H9         -2.4370   -1.0667   -3.4759 H         1 <0>         0.0521
     27 H10        -0.8669   -1.3432   -2.6483 H         1 <0>         0.0866
     28 H11        -4.4597   -2.4138   -2.7959 H         1 <0>         0.0649
     29 H12        -4.3218   -3.5944   -1.4491 H         1 <0>         0.0774
     30 H13        -3.9840    0.6073   -0.6193 H         1 <0>         0.0788
     31 H14        -4.2271    0.0535   -2.3106 H         1 <0>         0.0498
     32 H15        -3.9072   -1.0513    1.2421 H         1 <0>         0.0480
     33 H16        -2.5745   -1.9161    0.4038 H         1 <0>         0.0675
     34 H17        -4.0573   -2.8062    0.8894 H         1 <0>         0.0602
     35 H18        -2.4680   -4.7237   -2.7376 H         1 <0>         0.0673
     36 H19        -1.0232   -3.7767   -3.2302 H         1 <0>         0.0601
     37 H20        -2.6032   -3.4886   -4.0349 H         1 <0>         0.0570
     38 H21        -0.3371    0.2274    0.3598 H         1 <0>         0.1346
     39 H22         0.6074    1.7544    0.4135 H         1 <0>         0.1311
     40 H23        -0.9326    1.5844    2.2911 H         1 <0>         0.4549
     41 H24        -2.3082    1.4188    1.1478 H         1 <0>         0.4498
     42 H25        -1.3638    2.9458    1.2015 H         1 <0>         0.4508
@<TRIPOS>BOND
     1    1    2 1
     2    1   20 1
     3    1   21 1
     4    1   22 1
     5    2    6 2
     6    2    3 1
     7    3    4 2
     8    3   18 1
     9    4    5 1
    10    4    8 1
    11    5    6 1
    12    5    7 1
    13    7   23 1
    14    7   24 1
    15    7   25 1
    16    8   15 1
    17    8    9 1
    18    9   10 1
    19    9   26 1
    20    9   27 1
    21   10   11 1
    22   10   12 1
    23   10   17 1
    24   12   13 1
    25   12   28 1
    26   12   29 1
    27   13   14 1
    28   13   15 1
    29   13   16 1
    30   15   30 1
    31   15   31 1
    32   16   32 1
    33   16   33 1
    34   16   34 1
    35   17   35 1
    36   17   36 1
    37   17   37 1
    38   18   19 1
    39   18   38 1
    40   18   39 1
    41   19   40 1
    42   19   41 1
    43   19   42 1
