@<TRIPOS>MOLECULE
ZINC12072842
   63    66     0     0     0
SMALL
USER_CHARGES
4-[[[(4R)-6,6-dimethyl-1-(p-tolyl)-5,7-dihydro-4H-indazol-4-yl]amino]methyl]-2,6-dimethoxy-phenol
@<TRIPOS>ATOM
      1 C1          6.4443    7.1367   -2.9436 C.3       1 <0>        -0.1246
      2 C2          5.5630    6.0961   -2.3023 C.ar      1 <0>        -0.0648
      3 C3          5.7621    5.7430   -0.9802 C.ar      1 <0>        -0.1012
      4 C4          4.9563    4.7892   -0.3898 C.ar      1 <0>        -0.0925
      5 C5          3.9455    4.1848   -1.1250 C.ar      1 <0>         0.1133
      6 C6          3.7516    4.5373   -2.4538 C.ar      1 <0>        -0.1174
      7 C7          4.5570    5.4959   -3.0371 C.ar      1 <0>        -0.1004
      8 N1          3.1259    3.2165   -0.5285 N.pl3     1 <0>        -0.2905
      9 C8          1.8172    3.0231   -0.7764 C.2       1 <0>         0.1521
     10 C9          1.3953    1.9921   -0.0006 C.2       1 <0>        -0.3112
     11 C10         2.4823    1.5431    0.7470 C.2       1 <0>         0.0577
     12 N2          3.5235    2.2755    0.4332 N.2       1 <0>        -0.2631
     13 C11        -0.0178    1.4648    0.0101 C.3       1 <0>         0.1257
     14 H1         -0.5355    1.8200    0.9011 H         1 <0>         0.1465
     15 C12        -0.7352    1.9785   -1.2443 C.3       1 <0>        -0.1357
     16 C13        -0.5319    3.4910   -1.3665 C.3       1 <0>        -0.0433
     17 C14         0.9293    3.7838   -1.7290 C.3       1 <0>        -0.0677
     18 C15        -0.8702    4.1602   -0.0328 C.3       1 <0>        -0.1594
     19 C16        -1.4489    4.0420   -2.4603 C.3       1 <0>        -0.1485
     20 C17         0.1418   -0.5362    1.3641 C.3       1 <0>         0.0471
     21 C18         0.1583   -2.0423    1.3158 C.ar      1 <0>        -0.0924
     22 C19        -1.0260   -2.7481    1.4151 C.ar      1 <0>        -0.2090
     23 C20        -1.0157   -4.1339    1.3654 C.ar      1 <0>         0.1482
     24 C21         0.1888   -4.8134    1.2274 C.ar      1 <0>         0.0745
     25 C22         1.3779   -4.1002    1.1336 C.ar      1 <0>         0.1489
     26 C23         1.3583   -2.7144    1.1780 C.ar      1 <0>        -0.2095
     27 O1          2.5592   -4.7605    0.9989 O.3       1 <0>        -0.2940
     28 C24         3.7416   -3.9631    0.9088 C.3       1 <0>         0.0214
     29 O2          0.2038   -6.1736    1.1847 O.3       1 <0>        -0.4691
     30 O3         -2.1820   -4.8273    1.4576 O.3       1 <0>        -0.2941
     31 C25        -3.3815   -4.0634    1.5977 C.3       1 <0>         0.0216
     32 H2          7.3108    6.6519   -3.3933 H         1 <0>         0.0803
     33 H3          5.8821    7.6639   -3.7145 H         1 <0>         0.0741
     34 H4          6.7774    7.8471   -2.1870 H         1 <0>         0.0744
     35 H5          6.5484    6.2137   -0.4087 H         1 <0>         0.1391
     36 H6          5.1121    4.5141    0.6429 H         1 <0>         0.1358
     37 H7          2.9690    4.0657   -3.0295 H         1 <0>         0.1310
     38 H8          4.4038    5.7737   -4.0694 H         1 <0>         0.1393
     39 H9          2.4692    0.7329    1.4610 H         1 <0>         0.1878
     40 H10        -0.3250    1.4847   -2.1252 H         1 <0>         0.0910
     41 H11        -1.8004    1.7602   -1.1686 H         1 <0>         0.1000
     42 H12         1.1231    4.8525   -1.6376 H         1 <0>         0.1010
     43 H13         1.1262    3.4612   -2.7514 H         1 <0>         0.1015
     44 H14        -0.7262    5.2371   -0.1198 H         1 <0>         0.0691
     45 H15        -1.9087    3.9522    0.2250 H         1 <0>         0.0683
     46 H16        -0.2168    3.7680    0.7465 H         1 <0>         0.0610
     47 H17        -1.2078    3.5657   -3.4106 H         1 <0>         0.0642
     48 H18        -2.4874    3.8340   -2.2027 H         1 <0>         0.0690
     49 H19        -1.3047    5.1190   -2.5469 H         1 <0>         0.0703
     50 H20         1.0733   -0.1764    1.8010 H         1 <0>         0.1362
     51 H21        -0.6981   -0.2014    1.9729 H         1 <0>         0.1426
     52 H22        -1.9611   -2.2195    1.5271 H         1 <0>         0.1436
     53 H23         2.2820   -2.1594    1.1052 H         1 <0>         0.1424
     54 H24         4.6107   -4.6126    0.8046 H         1 <0>         0.1122
     55 H25         3.6721   -3.3071    0.0410 H         1 <0>         0.0588
     56 H26         3.8437   -3.3614    1.8119 H         1 <0>         0.0616
     57 H27         0.2935   -6.5933    2.0512 H         1 <0>         0.3962
     58 H28        -4.2361   -4.7372    1.6602 H         1 <0>         0.1120
     59 H29        -3.3256   -3.4624    2.5053 H         1 <0>         0.0612
     60 H30        -3.4979   -3.4081    0.7346 H         1 <0>         0.0590
     61 N3          0.0013   -0.0101   -0.0068 N.4       1 <0>        -0.5153
     62 H31         0.7930   -0.3321   -0.5759 H         1 <0>         0.4324
     63 H32        -0.8757   -0.3556   -0.4139 H         1 <0>         0.4315
@<TRIPOS>BOND
     1    1    2 1
     2    1   32 1
     3    1   33 1
     4    1   34 1
     5    2    7 ar
     6    2    3 ar
     7    3    4 ar
     8    3   35 1
     9    4    5 ar
    10    4   36 1
    11    5    6 ar
    12    5    8 1
    13    6    7 ar
    14    6   37 1
    15    7   38 1
    16    8   12 1
    17    8    9 1
    18    9   17 1
    19    9   10 2
    20   10   11 1
    21   10   13 1
    22   11   12 2
    23   11   39 1
    24   13   14 1
    25   13   15 1
    26   13   61 1
    27   15   16 1
    28   15   40 1
    29   15   41 1
    30   16   17 1
    31   16   18 1
    32   16   19 1
    33   17   42 1
    34   17   43 1
    35   18   44 1
    36   18   45 1
    37   18   46 1
    38   19   47 1
    39   19   48 1
    40   19   49 1
    41   20   21 1
    42   20   50 1
    43   20   51 1
    44   20   61 1
    45   21   26 ar
    46   21   22 ar
    47   22   23 ar
    48   22   52 1
    49   23   24 ar
    50   23   30 1
    51   24   25 ar
    52   24   29 1
    53   25   26 ar
    54   25   27 1
    55   26   53 1
    56   27   28 1
    57   28   54 1
    58   28   55 1
    59   28   56 1
    60   29   57 1
    61   30   31 1
    62   31   58 1
    63   31   59 1
    64   31   60 1
    65   61   62 1
    66   61   63 1
