@<TRIPOS>MOLECULE
ZINC12657912
   65    69     0     0     0
SMALL
USER_CHARGES
[(3R,5R,8R,9S,10R,13R,14R,17R)-10-cyano-5,14-dihydroxy-13-methyl-17-[(2S)-5-oxo-2H-furan-2-yl]-2,3,4,6,7,8,9,11,12,15,16,17-dodecahydro-1H-cyclopenta[a]phenanthren-3-yl] acetate
@<TRIPOS>ATOM
      1 C1          1.3246    5.6031   -3.7345 C.3       1 <0>        -0.1473
      2 C2          1.3487    4.0976   -3.6721 C.2       1 <0>         0.4544
      3 O1          1.3490    3.4505   -4.6924 O.2       1 <0>        -0.5175
      4 O2          1.3697    3.4755   -2.4828 O.3       1 <0>        -0.3276
      5 C3          1.3922    2.0237   -2.4986 C.3       1 <0>         0.0963
      6 H1          1.9025    1.6777   -3.3975 H         1 <0>         0.0869
      7 C4         -0.0421    1.4911   -2.4891 C.3       1 <0>        -0.1421
      8 C5         -0.7579    1.9754   -1.2293 C.3       1 <0>        -0.1046
      9 C6         -0.0179    1.4678    0.0101 C.3       1 <0>         0.0612
     10 C7         -0.7316    1.9615    1.2688 C.3       1 <0>        -0.0568
     11 H2         -0.7158    3.0514    1.2775 H         1 <0>         0.1103
     12 C8         -2.1867    1.5060    1.2576 C.3       1 <0>        -0.1247
     13 C9         -2.9109    1.9128    2.5520 C.3       1 <0>        -0.0944
     14 C10        -2.1417    1.3074    3.7096 C.3       1 <0>        -0.0452
     15 C11        -2.6779    1.5943    5.1082 C.3       1 <0>        -0.0761
     16 H3         -3.3347    0.7876    5.4337 H         1 <0>         0.0834
     17 C12        -1.4273    1.6689    6.0193 C.3       1 <0>        -0.1109
     18 C13        -0.1959    1.5069    5.0865 C.3       1 <0>        -0.1439
     19 C14        -0.7342    1.9626    3.7263 C.3       1 <0>         0.1391
     20 C15         0.0113    1.4449    2.5105 C.3       1 <0>        -0.1076
     21 H4          0.0248    0.3550    2.5233 H         1 <0>         0.0843
     22 C16         1.4441    1.9790    2.4979 C.3       1 <0>        -0.1130
     23 C17         2.1594    1.4900    1.2368 C.3       1 <0>        -0.1499
     24 C18         1.4174    1.9981   -0.0007 C.3       1 <0>         0.1596
     25 C19         2.1334    1.5114   -1.2619 C.3       1 <0>        -0.1494
     26 O3          1.3967    3.4269    0.0130 O.3       1 <0>        -0.5266
     27 O4         -0.8285    3.3878    3.6809 O.3       1 <0>        -0.5455
     28 C20        -3.4267    2.9285    5.1254 C.3       1 <0>         0.0917
     29 H5         -2.7794    3.7264    4.7616 H         1 <0>         0.1444
     30 C21        -3.9009    3.2409    6.5255 C.2       1 <0>        -0.1097
     31 C22        -5.2284    3.3168    6.4772 C.2       1 <0>        -0.2347
     32 C23        -5.6834    3.0702    5.1062 C.2       1 <0>         0.4873
     33 O5         -6.8440    3.0719    4.7455 O.2       1 <0>        -0.4589
     34 O6         -4.6258    2.8408    4.3056 O.3       1 <0>        -0.3108
     35 C24        -2.0067   -0.2032    3.5071 C.3       1 <0>        -0.1505
     36 C25         0.0021   -0.0041    0.0020 C.1       1 <0>         0.2172
     37 N1          0.0175   -1.1399   -0.0042 N.1       1 <0>        -0.4244
     38 H6          2.2132    6.0013   -3.2447 H         1 <0>         0.0990
     39 H7          1.3097    5.9233   -4.7763 H         1 <0>         0.0983
     40 H8          0.4335    5.9736   -3.2278 H         1 <0>         0.1010
     41 H9         -0.5706    1.8548   -3.3703 H         1 <0>         0.0797
     42 H10        -0.0250    0.4013   -2.4998 H         1 <0>         0.0754
     43 H11        -1.7792    1.5943   -1.2239 H         1 <0>         0.0770
     44 H12        -0.7771    3.0651   -1.2199 H         1 <0>         0.1018
     45 H13        -2.2201    0.4212    1.1560 H         1 <0>         0.0585
     46 H14        -2.6950    1.9596    0.4068 H         1 <0>         0.0711
     47 H15        -3.9307    1.5279    2.5428 H         1 <0>         0.0708
     48 H16        -2.9257    2.9988    2.6442 H         1 <0>         0.0834
     49 H17        -1.4499    0.8627    6.7525 H         1 <0>         0.0720
     50 H18        -1.3890    2.6335    6.5253 H         1 <0>         0.0741
     51 H19         0.1229    0.4654    5.0459 H         1 <0>         0.0774
     52 H20         0.6241    2.1475    5.4111 H         1 <0>         0.0743
     53 H21         1.9741    1.6182    3.3794 H         1 <0>         0.0671
     54 H22         1.4256    3.0689    2.5058 H         1 <0>         0.0773
     55 H23         2.1762    0.4002    1.2283 H         1 <0>         0.0686
     56 H24         3.1813    1.8691    1.2288 H         1 <0>         0.0761
     57 H25         3.1556    1.8896   -1.2682 H         1 <0>         0.0848
     58 H26         2.1491    0.4216   -1.2731 H         1 <0>         0.0888
     59 H27         2.2742    3.8330    0.0071 H         1 <0>         0.3795
     60 H28         0.0269    3.8380    3.6564 H         1 <0>         0.3760
     61 H29        -3.2806    3.3761    7.3992 H         1 <0>         0.1721
     62 H30        -5.8716    3.5274    7.3188 H         1 <0>         0.1645
     63 H31        -1.4207   -0.6280    4.3220 H         1 <0>         0.0584
     64 H32        -2.9971   -0.6582    3.4962 H         1 <0>         0.0621
     65 H33        -1.5062   -0.3994    2.5589 H         1 <0>         0.0669
@<TRIPOS>BOND
     1    1    2 1
     2    1   38 1
     3    1   39 1
     4    1   40 1
     5    2    3 2
     6    2    4 1
     7    4    5 1
     8    5    6 1
     9    5   25 1
    10    5    7 1
    11    7    8 1
    12    7   41 1
    13    7   42 1
    14    8    9 1
    15    8   43 1
    16    8   44 1
    17    9   24 1
    18    9   10 1
    19    9   36 1
    20   10   11 1
    21   10   20 1
    22   10   12 1
    23   12   13 1
    24   12   45 1
    25   12   46 1
    26   13   14 1
    27   13   47 1
    28   13   48 1
    29   14   19 1
    30   14   15 1
    31   14   35 1
    32   15   16 1
    33   15   17 1
    34   15   28 1
    35   17   18 1
    36   17   49 1
    37   17   50 1
    38   18   19 1
    39   18   51 1
    40   18   52 1
    41   19   20 1
    42   19   27 1
    43   20   21 1
    44   20   22 1
    45   22   23 1
    46   22   53 1
    47   22   54 1
    48   23   24 1
    49   23   55 1
    50   23   56 1
    51   24   25 1
    52   24   26 1
    53   25   57 1
    54   25   58 1
    55   26   59 1
    56   27   60 1
    57   28   29 1
    58   28   34 1
    59   28   30 1
    60   30   31 2
    61   30   61 1
    62   31   32 1
    63   31   62 1
    64   32   33 2
    65   32   34 1
    66   35   63 1
    67   35   64 1
    68   35   65 1
    69   36   37 3
