@<TRIPOS>MOLECULE
ZINC05687084
   31    33     0     0     0
SMALL
USER_CHARGES

@<TRIPOS>ATOM
      1 C1         -0.0187    1.5258    0.0104 C.3       1 <0>        -0.1483
      2 C2          0.0021   -0.0041    0.0020 C.3       1 <0>        -0.0870
      3 H1         -1.0198   -0.3832    0.0097 H         1 <0>         0.0785
      4 C3          0.7239   -0.5004   -1.2540 C.3       1 <0>        -0.1181
      5 C4          0.5368   -2.0121   -1.3984 C.3       1 <0>        -0.0592
      6 C5          0.9392   -2.6816   -0.0919 C.2       1 <0>        -0.0313
      7 C6          1.0227   -1.9764    1.0585 C.2       1 <0>        -0.1903
      8 S1          1.5164   -3.1593    2.2818 S.3       1 <0>         0.2816
      9 C7          1.6100   -4.5172    1.3318 C.2       1 <0>        -0.0008
     10 C8          1.2613   -4.0908    0.0415 C.2       1 <0>        -0.2383
     11 C9          1.2589   -5.1093   -1.0342 C.2       1 <0>         0.5714
     12 O1          0.9701   -4.8320   -2.1839 O.2       1 <0>        -0.4704
     13 N1          1.5973   -6.3661   -0.6636 N.am      1 <0>        -0.5058
     14 C10         1.9204   -6.7032    0.5924 C.2       1 <0>         0.5308
     15 S2          2.3282   -8.3336    0.9184 S.2       1 <0>        -0.5343
     16 N2          1.9398   -5.8173    1.6169 N.pl3     1 <0>        -0.5374
     17 H2          2.1780   -6.0915    2.5163 H         1 <0>         0.4564
     18 C11         1.6106   -7.4126   -1.6888 C.3       1 <0>         0.0519
     19 C12         0.7498   -0.5153    1.2422 C.3       1 <0>        -0.0322
     20 H3          1.0039    1.9031    0.0027 H         1 <0>         0.0583
     21 H4         -0.5459    1.8868   -0.8726 H         1 <0>         0.0609
     22 H5         -0.5289    1.8773    0.9072 H         1 <0>         0.0589
     23 H6          0.3123    0.0007   -2.1301 H         1 <0>         0.0760
     24 H7          1.7870   -0.2731   -1.1744 H         1 <0>         0.0684
     25 H8         -0.5086   -2.2320   -1.6149 H         1 <0>         0.0848
     26 H9          1.1658   -2.3826   -2.2079 H         1 <0>         0.0887
     27 H10         2.6007   -7.4650   -2.1416 H         1 <0>         0.0895
     28 H11         1.3689   -8.3721   -1.2317 H         1 <0>         0.1228
     29 H12         0.8722   -7.1793   -2.4558 H         1 <0>         0.0987
     30 H13         1.6921    0.0220    1.3502 H         1 <0>         0.0890
     31 H14         0.1359   -0.3630    2.1298 H         1 <0>         0.0870
@<TRIPOS>BOND
     1    1    2 1
     2    1   20 1
     3    1   21 1
     4    1   22 1
     5    2    3 1
     6    2   19 1
     7    2    4 1
     8    4    5 1
     9    4   23 1
    10    4   24 1
    11    5    6 1
    12    5   25 1
    13    5   26 1
    14    6   10 1
    15    6    7 2
    16    7    8 1
    17    7   19 1
    18    8    9 1
    19    9   16 1
    20    9   10 2
    21   10   11 1
    22   11   12 2
    23   11   13 am
    24   13   14 1
    25   13   18 1
    26   14   15 2
    27   14   16 1
    28   16   17 1
    29   18   27 1
    30   18   28 1
    31   18   29 1
    32   19   30 1
    33   19   31 1
