@<TRIPOS>MOLECULE
ZINC43237574
   42    43     0     0     0
SMALL
USER_CHARGES

@<TRIPOS>ATOM
      1 C1         -0.2042    1.5319    0.3903 C.3       1 <0>        -0.1890
      2 C2         -0.0267    0.0479    0.0632 C.3       1 <0>         0.0540
      3 H1          0.4179   -0.0554   -0.9266 H         1 <0>         0.1512
      4 C3          0.8902   -0.5977    1.1040 C.3       1 <0>        -0.0277
      5 H2          0.4408   -0.5034    2.0926 H         1 <0>         0.1169
      6 C4          1.0763   -2.0563    0.7738 C.2       1 <0>        -0.3026
      7 C5          1.6288   -2.5693   -0.4043 C.2       1 <0>         0.0690
      8 N1          1.6233   -3.8752   -0.3234 N.2       1 <0>        -0.2710
      9 N2          1.0663   -4.2349    0.9106 N.pl3     1 <0>        -0.3528
     10 C6          0.7439   -3.1008    1.5672 C.2       1 <0>         0.0842
     11 C7          0.8733   -5.6009    1.4037 C.3       1 <0>         0.0885
     12 S1          2.5014    0.2357    1.0903 S.3       1 <0>        -0.0529
     13 C8          3.3405   -0.4357    2.4866 C.ar      1 <0>        -0.1093
     14 C9          2.6608   -1.2584    3.3765 C.ar      1 <0>        -0.1041
     15 C10         3.3185   -1.7842    4.4703 C.ar      1 <0>        -0.1053
     16 C11         4.6594   -1.4910    4.6814 C.ar      1 <0>         0.1563
     17 C12         5.3391   -0.6689    3.7923 C.ar      1 <0>        -0.1246
     18 C13         4.6836   -0.1473    2.6951 C.ar      1 <0>        -0.0704
     19 N3          5.3267   -2.0247    5.7923 N.am      1 <0>        -0.6777
     20 C14         5.0091   -3.2548    6.2423 C.2       1 <0>         0.5151
     21 O1          4.2111   -3.9359    5.6336 O.2       1 <0>        -0.5285
     22 C15         5.6456   -3.7840    7.5016 C.3       1 <0>        -0.1745
     23 N4         -1.3360   -0.6181    0.0838 N.4       1 <0>        -0.6308
     24 H3          0.7737    2.0083    0.4589 H         1 <0>         0.1181
     25 H4         -0.7870    2.0103   -0.3968 H         1 <0>         0.0901
     26 H5         -0.7259    1.6343    1.3419 H         1 <0>         0.0855
     27 H6          1.9964   -1.9880   -1.2369 H         1 <0>         0.1901
     28 H7          0.2980   -3.0382    2.5488 H         1 <0>         0.1777
     29 H8          1.7592   -5.9169    1.9545 H         1 <0>         0.0877
     30 H9          0.0059   -5.6299    2.0631 H         1 <0>         0.0956
     31 H10         0.7111   -6.2721    0.5603 H         1 <0>         0.0997
     32 H11         1.6179   -1.4862    3.2126 H         1 <0>         0.1192
     33 H12         2.7902   -2.4234    5.1621 H         1 <0>         0.1371
     34 H13         6.3819   -0.4411    3.9569 H         1 <0>         0.1371
     35 H14         5.2135    0.4886    2.0013 H         1 <0>         0.1356
     36 H15         6.0171   -1.5087    6.2373 H         1 <0>         0.4166
     37 H16         5.0331   -3.5106    8.3608 H         1 <0>         0.1020
     38 H17         5.7229   -4.8696    7.4411 H         1 <0>         0.1007
     39 H18         6.6412   -3.3546    7.6137 H         1 <0>         0.0863
     40 H19        -1.9407   -0.1924   -0.6026 H         1 <0>         0.4394
     41 H20        -1.2189   -1.5968   -0.1319 H         1 <0>         0.4358
     42 H21        -1.7475   -0.5225    1.0001 H         1 <0>         0.4317
@<TRIPOS>BOND
     1    1    2 1
     2    1   24 1
     3    1   25 1
     4    1   26 1
     5    2    3 1
     6    2    4 1
     7    2   23 1
     8    4    5 1
     9    4    6 1
    10    4   12 1
    11    6   10 2
    12    6    7 1
    13    7    8 2
    14    7   27 1
    15    8    9 1
    16    9   10 1
    17    9   11 1
    18   10   28 1
    19   11   29 1
    20   11   30 1
    21   11   31 1
    22   12   13 1
    23   13   18 ar
    24   13   14 ar
    25   14   15 ar
    26   14   32 1
    27   15   16 ar
    28   15   33 1
    29   16   17 ar
    30   16   19 1
    31   17   18 ar
    32   17   34 1
    33   18   35 1
    34   19   20 am
    35   19   36 1
    36   20   21 2
    37   20   22 1
    38   22   37 1
    39   22   38 1
    40   22   39 1
    41   23   40 1
    42   23   41 1
    43   23   42 1
