@<TRIPOS>MOLECULE
ZINC40708993
   33    34     0     0     0
SMALL
USER_CHARGES

@<TRIPOS>ATOM
      1 C1         -0.5306    1.7323   -0.3032 C.2       1 <0>        -0.1602
      2 C2         -0.3290    0.4386   -0.3472 C.2       1 <0>        -0.1840
      3 C3         -1.4902   -0.5104   -0.1988 C.3       1 <0>         0.1632
      4 N1         -1.5280   -1.4192   -1.3472 N.pl3     1 <0>        -0.7145
      5 C4         -2.5186   -2.3902   -1.4326 C.ar      1 <0>         0.4078
      6 C5         -2.5613   -3.2658   -2.5195 C.ar      1 <0>         0.0052
      7 C6         -3.5773   -4.2221   -2.5558 C.ar      1 <0>         0.3848
      8 N2         -4.4603   -4.2628   -1.5603 N.ar      1 <0>        -0.5607
      9 C7         -4.3842   -3.4177   -0.5527 C.ar      1 <0>         0.3252
     10 N3         -3.4378   -2.5035   -0.4771 N.ar      1 <0>        -0.5669
     11 N4         -3.6661   -5.1181   -3.6154 N.pl3     1 <0>        -0.6580
     12 C8         -4.7544   -5.9910   -3.7033 C.ar      1 <0>         0.1865
     13 C9         -4.5766   -7.2774   -4.1965 C.ar      1 <0>        -0.1508
     14 C10        -5.6536   -8.1375   -4.2823 C.ar      1 <0>        -0.0680
     15 C11        -6.9088   -7.7191   -3.8775 C.ar      1 <0>        -0.1129
     16 C12        -7.0890   -6.4382   -3.3862 C.ar      1 <0>        -0.0686
     17 C13        -6.0146   -5.5756   -3.2924 C.ar      1 <0>        -0.1093
     18 Br1        -8.3810   -8.8999   -3.9965 Br        1 <0>        -0.0544
     19 N5         -1.6086   -3.1861   -3.5479 N.pl3     1 <0>        -0.8759
     20 H1          0.3016    2.4124   -0.4096 H         1 <0>         0.1038
     21 H2         -1.5295    2.1188   -0.1651 H         1 <0>         0.1014
     22 H3          0.6694    0.0522   -0.4898 H         1 <0>         0.1137
     23 H4         -1.3725   -1.0880    0.7180 H         1 <0>         0.0747
     24 H5         -2.4198    0.0571   -0.1538 H         1 <0>         0.0707
     25 H6         -0.8616   -1.3433   -2.0479 H         1 <0>         0.4042
     26 H7         -5.1174   -3.4785    0.2380 H         1 <0>         0.1973
     27 H8         -2.9728   -5.1374   -4.2936 H         1 <0>         0.4141
     28 H9         -3.5972   -7.6044   -4.5130 H         1 <0>         0.1307
     29 H10        -5.5161   -9.1376   -4.6660 H         1 <0>         0.1343
     30 H11        -8.0700   -6.1142   -3.0713 H         1 <0>         0.1343
     31 H12        -6.1549   -4.5777   -2.9040 H         1 <0>         0.1418
     32 H13        -0.9083   -2.5161   -3.5094 H         1 <0>         0.3959
     33 H14        -1.6508   -3.8011   -4.2968 H         1 <0>         0.3944
@<TRIPOS>BOND
     1    1    2 2
     2    1   20 1
     3    1   21 1
     4    2    3 1
     5    2   22 1
     6    3    4 1
     7    3   23 1
     8    3   24 1
     9    4    5 1
    10    4   25 1
    11    5   10 ar
    12    5    6 ar
    13    6    7 ar
    14    6   19 1
    15    7    8 ar
    16    7   11 1
    17    8    9 ar
    18    9   10 ar
    19    9   26 1
    20   11   12 1
    21   11   27 1
    22   12   17 ar
    23   12   13 ar
    24   13   14 ar
    25   13   28 1
    26   14   15 ar
    27   14   29 1
    28   15   16 ar
    29   15   18 1
    30   16   17 ar
    31   16   30 1
    32   17   31 1
    33   19   32 1
    34   19   33 1
