@<TRIPOS>MOLECULE
ZINC62069385
   32    33     0     0     0
SMALL
USER_CHARGES

@<TRIPOS>ATOM
      1 C1         -0.0173    1.4248    0.0099 C.3       1 <0>         0.0386
      2 O1          0.0021   -0.0041    0.0020 O.3       1 <0>        -0.3068
      3 C2          0.6048   -0.6061   -1.0540 C.ar      1 <0>         0.3287
      4 C3          0.6506   -1.9929   -1.1211 C.ar      1 <0>        -0.1916
      5 C4          1.2678   -2.5945   -2.2036 C.ar      1 <0>        -0.0221
      6 C5          1.8203   -1.7835   -3.1857 C.ar      1 <0>        -0.1957
      7 C6          1.7379   -0.4119   -3.0540 C.ar      1 <0>         0.1640
      8 N1          1.1383    0.1328   -2.0122 N.ar      1 <0>        -0.5397
      9 C7          2.5029   -2.3941   -4.3825 C.3       1 <0>         0.1664
     10 N2          1.5228   -2.5990   -5.4519 N.pl3     1 <0>        -1.1108
     11 S1          2.0348   -2.9023   -6.9973 S.o2      1 <0>         2.7288
     12 O2          0.8656   -3.0792   -7.7851 O.2       1 <0>        -0.9473
     13 O3          3.0161   -1.9201   -7.3001 O.2       1 <0>        -0.9420
     14 C8          2.8669   -4.4553   -6.9751 C.2       1 <0>        -0.7426
     15 C9          2.3608   -5.6970   -7.1751 C.2       1 <0>        -0.0399
     16 C10         3.2130   -6.7876   -7.1097 C.2       1 <0>         0.1434
     17 C11         4.5294   -6.5764   -6.8471 C.2       1 <0>        -0.2394
     18 S2          4.5954   -4.7993   -6.6914 S.3       1 <0>         0.1727
     19 N3          2.7233   -8.0921   -7.3115 N.pl3     1 <0>        -0.8759
     20 H1          1.0053    1.8021    0.0021 H         1 <0>         0.0609
     21 H2         -0.5445    1.7859   -0.8732 H         1 <0>         0.0607
     22 H3         -0.5275    1.7763    0.9067 H         1 <0>         0.0984
     23 H4          0.2106   -2.5935   -0.3387 H         1 <0>         0.1448
     24 H5          1.3190   -3.6704   -2.2826 H         1 <0>         0.1447
     25 H6          2.1661    0.2235   -3.8152 H         1 <0>         0.1645
     26 H7          3.2887   -1.7250   -4.7331 H         1 <0>         0.0954
     27 H8          2.9401   -3.3523   -4.1018 H         1 <0>         0.0793
     28 H9          0.5740   -2.5571   -5.2548 H         1 <0>         0.4223
     29 H10         1.3096   -5.8340   -7.3817 H         1 <0>         0.1479
     30 H11         5.3294   -7.2967   -6.7599 H         1 <0>         0.1909
     31 H12         1.7820   -8.2333   -7.4981 H         1 <0>         0.3991
     32 H13         3.3273   -8.8496   -7.2638 H         1 <0>         0.4024
@<TRIPOS>BOND
     1    1    2 1
     2    1   20 1
     3    1   21 1
     4    1   22 1
     5    2    3 1
     6    3    8 ar
     7    3    4 ar
     8    4    5 ar
     9    4   23 1
    10    5    6 ar
    11    5   24 1
    12    6    7 ar
    13    6    9 1
    14    7    8 ar
    15    7   25 1
    16    9   10 1
    17    9   26 1
    18    9   27 1
    19   10   11 1
    20   10   28 1
    21   11   12 2
    22   11   13 2
    23   11   14 1
    24   14   18 1
    25   14   15 2
    26   15   16 1
    27   15   29 1
    28   16   17 2
    29   16   19 1
    30   17   18 1
    31   17   30 1
    32   19   31 1
    33   19   32 1
