@<TRIPOS>MOLECULE
ZINC19616275
   51    54     0     0     0
SMALL
USER_CHARGES
3-[[4-[[6-(trifluoromethyl)-3-pyridyl]methyl]piperazin-1-yl]methyl]-4H-benzo[e][1,2,4]thiadiazine 1,1-dioxide
@<TRIPOS>ATOM
      1 C1         -1.0925   -2.1049   -0.3709 C.ar      1 <0>        -0.0368
      2 C2          0.0594   -2.7756   -0.0017 C.ar      1 <0>        -0.1411
      3 C3          1.1868   -2.0632    0.3697 C.ar      1 <0>         0.0100
      4 C4          1.1564   -0.6870    0.3700 C.ar      1 <0>        -0.7115
      5 C5          0.0021   -0.0041    0.0020 C.ar      1 <0>         0.2203
      6 C6         -1.1261   -0.7245   -0.3709 C.ar      1 <0>        -0.1533
      7 N1         -0.0168    1.3878    0.0097 N.pl3     1 <0>        -0.6811
      8 C7          1.0896    2.1713    0.0033 C.2       1 <0>         0.5141
      9 N2          2.2721    1.8052    0.3405 N.2       1 <0>        -0.9250
     10 S1          2.5758    0.2516    0.8350 S.o2      1 <0>         2.6231
     11 O1          2.6086    0.2712    2.2555 O.2       1 <0>        -0.9518
     12 O2          3.6597   -0.2255    0.0498 O.2       1 <0>        -0.9388
     13 C8          0.9144    3.6013   -0.4388 C.3       1 <0>         0.0858
     14 N3          2.2090    4.2934   -0.3821 N.3       1 <0>        -0.5150
     15 C9          2.6811    4.4147    1.0042 C.3       1 <0>         0.0187
     16 C10         4.0651    5.0680    1.0136 C.3       1 <0>        -0.0053
     17 N4          3.9859    6.3868    0.3700 N.4       1 <0>        -0.4025
     18 C11         3.5138    6.2654   -1.0164 C.3       1 <0>         0.0022
     19 C12         2.1297    5.6121   -1.0258 C.3       1 <0>         0.0246
     20 C13         5.2804    7.0788    0.4266 C.3       1 <0>         0.0494
     21 C14         5.6147    7.4026    1.8600 C.ar      1 <0>        -0.1869
     22 C15         6.3283    6.5012    2.6354 C.ar      1 <0>        -0.0432
     23 C16         6.6130    6.8414    3.9488 C.ar      1 <0>        -0.1167
     24 C17         6.1792    8.0591    4.4383 C.ar      1 <0>         0.0765
     25 N5          5.5027    8.8918    3.6718 N.ar      1 <0>        -0.4341
     26 C18         5.2189    8.6039    2.4165 C.ar      1 <0>         0.1368
     27 C19         6.4826    8.4391    5.8647 C.3       1 <0>         0.5183
     28 F1          7.7060    9.1155    5.9170 F         1 <0>        -0.1616
     29 F2          5.4686    9.2711    6.3514 F         1 <0>        -0.1573
     30 F3          6.5547    7.2835    6.6499 F         1 <0>        -0.1641
     31 H1         -1.9700   -2.6637   -0.6608 H         1 <0>         0.1445
     32 H2          0.0791   -3.8554   -0.0028 H         1 <0>         0.1439
     33 H3          2.0872   -2.5854    0.6579 H         1 <0>         0.1424
     34 H4         -2.0282   -0.2055   -0.6596 H         1 <0>         0.1429
     35 H5         -0.9768    1.9248    0.0218 H         1 <0>         0.4587
     36 H6          0.5323    3.6220   -1.4701 H         1 <0>         0.1343
     37 H7          0.1992    4.1061    0.2274 H         1 <0>         0.0901
     38 H8          1.9775    5.0357    1.5781 H         1 <0>         0.0584
     39 H9          2.7433    3.4151    1.4592 H         1 <0>         0.1471
     40 H10         4.4079    5.1858    2.0522 H         1 <0>         0.1313
     41 H11         4.7744    4.4324    0.4632 H         1 <0>         0.1438
     42 H12         3.4517    7.2650   -1.4714 H         1 <0>         0.1408
     43 H13         4.2174    5.6444   -1.5903 H         1 <0>         0.1408
     44 H14         1.7863    5.4932   -2.0640 H         1 <0>         0.1285
     45 H15         1.4198    6.2468   -0.4752 H         1 <0>         0.0648
     46 H16         6.0620    6.4294    0.0055 H         1 <0>         0.1439
     47 H17         5.2242    8.0100   -0.1562 H         1 <0>         0.1484
     48 H18         6.6547    5.5567    2.2257 H         1 <0>         0.1609
     49 H19         7.1670    6.1637    4.5814 H         1 <0>         0.1656
     50 H20         4.6670    9.3134    1.8178 H         1 <0>         0.1779
     51 H21         3.2555    6.9930    0.9259 H         1 <0>         0.4376
@<TRIPOS>BOND
     1    1    6 ar
     2    1    2 ar
     3    1   31 1
     4    2    3 ar
     5    2   32 1
     6    3    4 ar
     7    3   33 1
     8    4   10 1
     9    4    5 ar
    10    5    6 ar
    11    5    7 1
    12    6   34 1
    13    7    8 1
    14    7   35 1
    15    8    9 2
    16    8   13 1
    17    9   10 1
    18   10   11 2
    19   10   12 2
    20   13   14 1
    21   13   36 1
    22   13   37 1
    23   14   19 1
    24   14   15 1
    25   15   16 1
    26   15   38 1
    27   15   39 1
    28   16   17 1
    29   16   40 1
    30   16   41 1
    31   17   18 1
    32   17   20 1
    33   17   51 1
    34   18   19 1
    35   18   42 1
    36   18   43 1
    37   19   44 1
    38   19   45 1
    39   20   21 1
    40   20   46 1
    41   20   47 1
    42   21   26 ar
    43   21   22 ar
    44   22   23 ar
    45   22   48 1
    46   23   24 ar
    47   23   49 1
    48   24   25 ar
    49   24   27 1
    50   25   26 ar
    51   26   50 1
    52   27   28 1
    53   27   29 1
    54   27   30 1
