@<TRIPOS>MOLECULE
ZINC44167448
   43    46     0     0     0
SMALL
USER_CHARGES

@<TRIPOS>ATOM
      1 C1         -0.1121    1.2483    0.1657 C.ar      1 <0>        -0.1114
      2 C2          1.0617    1.9649    0.3084 C.ar      1 <0>        -0.1238
      3 C3          2.2728    1.3050    0.2957 C.ar      1 <0>        -0.1113
      4 C4          2.3236   -0.0743    0.1382 C.ar      1 <0>        -0.1185
      5 C5          1.1552   -0.7871   -0.0089 C.ar      1 <0>        -0.0587
      6 C6         -0.0638   -0.1212    0.0087 C.ar      1 <0>        -0.1240
      7 C7          1.1356   -2.2812   -0.1999 C.3       1 <0>        -0.0806
      8 C8          2.4668   -2.8951    0.2288 C.3       1 <0>        -0.1476
      9 C9          3.5989   -2.1301   -0.4667 C.3       1 <0>         0.0901
     10 H1          3.3901   -2.0556   -1.5340 H         1 <0>         0.0954
     11 C10         3.6792   -0.7310    0.1405 C.3       1 <0>         0.1622
     12 H2          4.3730   -0.1254   -0.4425 H         1 <0>         0.0695
     13 O1          4.1538   -0.8274    1.4850 O.3       1 <0>        -0.5468
     14 N1          4.8717   -2.8339   -0.2597 N.3       1 <0>        -0.5014
     15 C11         4.9949   -3.3064    1.1358 C.3       1 <0>         0.0059
     16 C12         6.2850   -4.0935    1.3482 C.3       1 <0>         0.0601
     17 O2          6.4487   -5.1204    0.3535 O.3       1 <0>        -0.3740
     18 C13         6.4073   -4.5688   -0.9501 C.3       1 <0>         0.0851
     19 H3          7.1539   -3.7809   -1.0500 H         1 <0>         0.0726
     20 C14         4.9792   -3.9872   -1.1405 C.3       1 <0>         0.0320
     21 H4          4.2366   -4.7347   -0.8613 H         1 <0>         0.0523
     22 C15         4.9059   -3.7228   -2.6403 C.3       1 <0>        -0.1153
     23 C16         5.8437   -4.7714   -3.2886 C.3       1 <0>        -0.1177
     24 C17         6.5157   -5.5533   -2.1183 C.3       1 <0>        -0.1144
     25 H5         -1.0639    1.7586    0.1816 H         1 <0>         0.1237
     26 H6          1.0303    3.0377    0.4290 H         1 <0>         0.1238
     27 H7          3.1892    1.8652    0.4087 H         1 <0>         0.1212
     28 H8         -0.9811   -0.6803   -0.1019 H         1 <0>         0.1221
     29 H9          0.3326   -2.7097    0.3997 H         1 <0>         0.0774
     30 H10         0.9579   -2.5068   -1.2514 H         1 <0>         0.0774
     31 H11         2.5779   -2.8122    1.3099 H         1 <0>         0.0804
     32 H12         2.4985   -3.9444   -0.0646 H         1 <0>         0.0670
     33 H13         4.2470    0.0254    1.9312 H         1 <0>         0.3721
     34 H14         4.9882   -2.4461    1.8050 H         1 <0>         0.1235
     35 H15         4.1444   -3.9461    1.3716 H         1 <0>         0.0426
     36 H16         7.1319   -3.4093    1.2961 H         1 <0>         0.0569
     37 H17         6.2619   -4.5548    2.3355 H         1 <0>         0.0964
     38 H18         3.8850   -3.8571   -2.9978 H         1 <0>         0.0659
     39 H19         5.2552   -2.7147   -2.8634 H         1 <0>         0.0757
     40 H20         5.2679   -5.4503   -3.9175 H         1 <0>         0.0713
     41 H21         6.6108   -4.2721   -3.8805 H         1 <0>         0.0703
     42 H22         7.5596   -5.7747   -2.3404 H         1 <0>         0.0772
     43 H23         5.9636   -6.4683   -1.9038 H         1 <0>         0.0753
@<TRIPOS>BOND
     1    1    6 ar
     2    1    2 ar
     3    1   25 1
     4    2    3 ar
     5    2   26 1
     6    3    4 ar
     7    3   27 1
     8    4   11 1
     9    4    5 ar
    10    5    6 ar
    11    5    7 1
    12    6   28 1
    13    7    8 1
    14    7   29 1
    15    7   30 1
    16    8    9 1
    17    8   31 1
    18    8   32 1
    19    9   10 1
    20    9   11 1
    21    9   14 1
    22   11   12 1
    23   11   13 1
    24   13   33 1
    25   14   20 1
    26   14   15 1
    27   15   16 1
    28   15   34 1
    29   15   35 1
    30   16   17 1
    31   16   36 1
    32   16   37 1
    33   17   18 1
    34   18   19 1
    35   18   24 1
    36   18   20 1
    37   20   21 1
    38   20   22 1
    39   22   23 1
    40   22   38 1
    41   22   39 1
    42   23   24 1
    43   23   40 1
    44   23   41 1
    45   24   42 1
    46   24   43 1
