@<TRIPOS>MOLECULE
ZINC63039739
   24    24     0     0     0
SMALL
USER_CHARGES

@<TRIPOS>ATOM
      1 C1         -0.0187    1.5258    0.0104 C.3       1 <0>        -0.1574
      2 C2          0.0021   -0.0041    0.0020 C.3       1 <0>        -0.0786
      3 H1          0.5123   -0.3556   -0.8948 H         1 <0>         0.1030
      4 C3         -1.4117   -0.5257    0.0127 C.ar      1 <0>         0.1552
      5 C4         -2.3877    0.1609    0.7104 C.ar      1 <0>        -0.1500
      6 C5         -3.6851   -0.3269    0.7142 C.ar      1 <0>        -0.0451
      7 C6         -3.9540   -1.4933    0.0124 C.ar      1 <0>        -0.1524
      8 C7         -2.9257   -2.1253   -0.6625 C.ar      1 <0>         0.1355
      9 N1         -1.7042   -1.6286   -0.6480 N.ar      1 <0>        -0.4753
     10 Br1        -5.7037   -2.2097   -0.0203 Br        1 <0>        -0.0325
     11 C8          0.7421   -0.5109    1.2415 C.3       1 <0>         0.1123
     12 H2          0.7568   -1.6008    1.2356 H         1 <0>         0.1022
     13 C9          2.1775    0.0187    1.2307 C.3       1 <0>        -0.1872
     14 O1          0.0732   -0.0501    2.4172 O.3       1 <0>        -0.5576
     15 H3          1.0039    1.9031    0.0027 H         1 <0>         0.0732
     16 H4         -0.5459    1.8868   -0.8726 H         1 <0>         0.0655
     17 H5         -0.5289    1.8773    0.9072 H         1 <0>         0.0620
     18 H6         -2.1423    1.0660    1.2462 H         1 <0>         0.1440
     19 H7         -4.4680    0.1883    1.2509 H         1 <0>         0.1451
     20 H8         -3.1263   -3.0337   -1.2112 H         1 <0>         0.1653
     21 H9          2.1627    1.1086    1.2367 H         1 <0>         0.0642
     22 H10         2.7046   -0.3424    2.1137 H         1 <0>         0.0677
     23 H11         2.6876   -0.3328    0.3339 H         1 <0>         0.0694
     24 H12         0.0226    0.9129    2.4890 H         1 <0>         0.3715
@<TRIPOS>BOND
     1    1    2 1
     2    1   15 1
     3    1   16 1
     4    1   17 1
     5    2    3 1
     6    2    4 1
     7    2   11 1
     8    4    9 ar
     9    4    5 ar
    10    5    6 ar
    11    5   18 1
    12    6    7 ar
    13    6   19 1
    14    7    8 ar
    15    7   10 1
    16    8    9 ar
    17    8   20 1
    18   11   12 1
    19   11   13 1
    20   11   14 1
    21   13   21 1
    22   13   22 1
    23   13   23 1
    24   14   24 1
