@<TRIPOS>MOLECULE
ZINC04530747
   50    53     0     0     0
SMALL
USER_CHARGES
9-amino-8-benzyloxy-3-phenyl-2,4,7-trioxabicyclo[4.4.0]decan-10-ol
@<TRIPOS>ATOM
      1 C1          3.1392   -5.0079    2.1975 C.ar      1 <0>        -0.1011
      2 C2          4.1157   -4.2559    1.5715 C.ar      1 <0>        -0.1207
      3 C3          4.0734   -2.8758    1.6373 C.ar      1 <0>        -0.0960
      4 C4          3.0549   -2.2477    2.3294 C.ar      1 <0>        -0.1100
      5 C5          2.0816   -2.9998    2.9601 C.ar      1 <0>        -0.0953
      6 C6          2.1207   -4.3798    2.8896 C.ar      1 <0>        -0.1196
      7 C7          3.0090   -0.7431    2.4014 C.3       1 <0>         0.1102
      8 O1          2.2507   -0.2364    1.3013 O.3       1 <0>        -0.3762
      9 C8          2.1451    1.1885    1.2754 C.3       1 <0>         0.2286
     10 H1          3.1434    1.6256    1.2935 H         1 <0>         0.1367
     11 C9          1.4246    1.6209   -0.0028 C.3       1 <0>        -0.0189
     12 H2          1.9531    1.2234   -0.8693 H         1 <0>         0.1751
     13 C10        -0.0127    1.0858    0.0080 C.3       1 <0>         0.0973
     14 H3          0.0021   -0.0041    0.0020 H         1 <0>         0.1260
     15 C11        -0.7046    1.5833    1.2771 C.3       1 <0>         0.0619
     16 H4         -0.7325    2.6730    1.2727 H         1 <0>         0.0685
     17 C12         0.0940    1.0969    2.4933 C.3       1 <0>         0.0171
     18 H5          0.1426    0.0080    2.4813 H         1 <0>         0.1080
     19 O2          1.4138    1.6316    2.4234 O.3       1 <0>        -0.3712
     20 C13        -0.6249    1.5603    3.7610 C.3       1 <0>         0.0675
     21 O3         -1.9730    1.0761    3.7169 O.3       1 <0>        -0.3634
     22 C14        -2.7102    1.4885    2.5651 C.3       1 <0>         0.2940
     23 H6         -2.8054    2.5743    2.5666 H         1 <0>         0.0775
     24 O4         -2.0342    1.0728    1.3731 O.3       1 <0>        -0.3508
     25 C15        -4.0824    0.8666    2.6009 C.ar      1 <0>        -0.1025
     26 C16        -4.4916    0.0354    1.5749 C.ar      1 <0>        -0.0829
     27 C17        -5.7488   -0.5382    1.6097 C.ar      1 <0>        -0.1235
     28 C18        -6.6000   -0.2741    2.6665 C.ar      1 <0>        -0.1004
     29 C19        -6.1927    0.5611    3.6899 C.ar      1 <0>        -0.1204
     30 C20        -4.9341    1.1317    3.6570 C.ar      1 <0>        -0.0879
     31 O5         -0.7116    1.5630   -1.1435 O.3       1 <0>        -0.5425
     32 H7          3.1718   -6.0862    2.1455 H         1 <0>         0.1289
     33 H8          4.9114   -4.7466    1.0308 H         1 <0>         0.1287
     34 H9          4.8363   -2.2882    1.1482 H         1 <0>         0.1230
     35 H10         1.2883   -2.5092    3.5046 H         1 <0>         0.1219
     36 H11         1.3576   -4.9673    3.3784 H         1 <0>         0.1288
     37 H12         4.0232   -0.3461    2.3571 H         1 <0>         0.0720
     38 H13         2.5401   -0.4383    3.3370 H         1 <0>         0.0752
     39 H14        -0.1186    1.1579    4.6384 H         1 <0>         0.1232
     40 H15        -0.6271    2.6494    3.8047 H         1 <0>         0.0723
     41 H16        -3.8279   -0.1682    0.7476 H         1 <0>         0.1307
     42 H17        -6.0671   -1.1905    0.8100 H         1 <0>         0.1286
     43 H18        -7.5832   -0.7202    2.6924 H         1 <0>         0.1290
     44 H19        -6.8579    0.7677    4.5153 H         1 <0>         0.1308
     45 H20        -4.6159    1.7843    4.4565 H         1 <0>         0.1270
     46 H21        -0.3187    1.2891   -1.9835 H         1 <0>         0.3975
     47 H22         2.3351    3.4655   -0.0859 H         1 <0>         0.4427
     48 H23         0.8761    3.4001   -0.8815 H         1 <0>         0.4497
     49 N1          1.3874    3.0930   -0.0557 N.4       1 <0>        -0.6343
     50 H24         0.9141    3.4491    0.7830 H         1 <0>         0.4393
@<TRIPOS>BOND
     1    1    6 ar
     2    1    2 ar
     3    1   32 1
     4    2    3 ar
     5    2   33 1
     6    3    4 ar
     7    3   34 1
     8    4    5 ar
     9    4    7 1
    10    5    6 ar
    11    5   35 1
    12    6   36 1
    13    7    8 1
    14    7   37 1
    15    7   38 1
    16    8    9 1
    17    9   10 1
    18    9   19 1
    19    9   11 1
    20   11   12 1
    21   11   13 1
    22   11   49 1
    23   13   14 1
    24   13   15 1
    25   13   31 1
    26   15   16 1
    27   15   24 1
    28   15   17 1
    29   17   18 1
    30   17   19 1
    31   17   20 1
    32   20   21 1
    33   20   39 1
    34   20   40 1
    35   21   22 1
    36   22   23 1
    37   22   24 1
    38   22   25 1
    39   25   30 ar
    40   25   26 ar
    41   26   27 ar
    42   26   41 1
    43   27   28 ar
    44   27   42 1
    45   28   29 ar
    46   28   43 1
    47   29   30 ar
    48   29   44 1
    49   30   45 1
    50   31   46 1
    51   47   49 1
    52   48   49 1
    53   49   50 1
