@<TRIPOS>MOLECULE
ZINC40290748
   29    30     0     0     0
SMALL
USER_CHARGES

@<TRIPOS>ATOM
      1 C1          0.8002    1.4467    0.0239 C.3       1 <0>        -0.1305
      2 C2          0.5643   -0.0416    0.0112 C.ar      1 <0>         0.0159
      3 C3          0.4831   -0.7420   -1.1808 C.ar      1 <0>         0.0283
      4 N1          0.2766   -2.0445   -1.1720 N.ar      1 <0>        -0.1749
      5 N2          0.1430   -2.7171   -0.0880 N.ar      1 <0>        -0.2783
      6 C4          0.2031   -2.1487    1.1081 C.ar      1 <0>         0.3672
      7 C5          0.4259   -0.7616    1.2048 C.ar      1 <0>        -0.0821
      8 C6          0.5031   -0.1096    2.4774 C.1       1 <0>         0.2455
      9 N3          0.5644    0.4076    3.4870 N.1       1 <0>        -0.3773
     10 N4          0.0533   -2.9136    2.2534 N.pl3     1 <0>        -0.6410
     11 C7         -0.0334   -4.3057    2.1579 C.ar      1 <0>         0.1831
     12 C8          0.5622   -4.9687    1.0926 C.ar      1 <0>        -0.1184
     13 C9          0.4748   -6.3439    1.0011 C.ar      1 <0>        -0.0766
     14 C10        -0.2048   -7.0614    1.9686 C.ar      1 <0>        -0.1314
     15 C11        -0.7991   -6.4052    3.0307 C.ar      1 <0>        -0.0670
     16 C12        -0.7107   -5.0298    3.1316 C.ar      1 <0>        -0.1285
     17 Br1        -1.5164   -4.1337    4.5889 Br        1 <0>        -0.0466
     18 C13         0.6308   -0.0136   -2.4918 C.3       1 <0>        -0.0997
     19 H1          1.8718    1.6445    0.0475 H         1 <0>         0.0975
     20 H2          0.3684    1.8907   -0.8731 H         1 <0>         0.0966
     21 H3          0.3310    1.8815    0.9065 H         1 <0>         0.0780
     22 H4          0.0085   -2.4833    3.1216 H         1 <0>         0.4218
     23 H5          1.0929   -4.4094    0.3363 H         1 <0>         0.1539
     24 H6          0.9375   -6.8598    0.1727 H         1 <0>         0.1362
     25 H7         -0.2718   -8.1368    1.8942 H         1 <0>         0.1349
     26 H8         -1.3294   -6.9685    3.7843 H         1 <0>         0.1376
     27 H9          1.6811    0.0017   -2.7827 H         1 <0>         0.0862
     28 H10         0.0487   -0.5244   -3.2589 H         1 <0>         0.0862
     29 H11         0.2693    1.0089   -2.3821 H         1 <0>         0.0834
@<TRIPOS>BOND
     1    1    2 1
     2    1   19 1
     3    1   20 1
     4    1   21 1
     5    2    7 ar
     6    2    3 ar
     7    3    4 ar
     8    3   18 1
     9    4    5 ar
    10    5    6 ar
    11    6    7 ar
    12    6   10 1
    13    7    8 1
    14    8    9 3
    15   10   11 1
    16   10   22 1
    17   11   16 ar
    18   11   12 ar
    19   12   13 ar
    20   12   23 1
    21   13   14 ar
    22   13   24 1
    23   14   15 ar
    24   14   25 1
    25   15   16 ar
    26   15   26 1
    27   16   17 1
    28   18   27 1
    29   18   28 1
    30   18   29 1
