@<TRIPOS>MOLECULE
ZINC09029435
   30    31     0     0     0
SMALL
USER_CHARGES
N-[(2,5-dichlorophenyl)carbamoylmethyl]thiophene-2-carboxamide
@<TRIPOS>ATOM
      1 C1         -1.1929    1.7792    0.0695 C.2       1 <0>        -0.1797
      2 C2         -0.0126    1.0785    0.0576 C.2       1 <0>        -0.0650
      3 C3          1.1600    1.8174    0.0397 C.2       1 <0>        -0.2463
      4 S1          0.5393    3.4900    0.0489 S.3       1 <0>         0.1485
      5 C4         -1.1579    3.1376    0.0746 C.2       1 <0>        -0.1780
      6 C5          2.5482    1.3471    0.0192 C.2       1 <0>         0.6122
      7 O1          2.7863    0.1536    0.0162 O.2       1 <0>        -0.5226
      8 N1          3.5608    2.2363    0.0036 N.am      1 <0>        -0.7166
      9 C6          4.9482    1.7663   -0.0169 C.3       1 <0>         0.1044
     10 C7          5.8797    2.9508   -0.0314 C.2       1 <0>         0.5144
     11 O2          5.4290    4.0769   -0.0252 O.2       1 <0>        -0.5084
     12 N2          7.2136    2.7590   -0.0512 N.am      1 <0>        -0.6643
     13 C8          8.0769    3.8555   -0.1594 C.ar      1 <0>         0.1665
     14 C9          7.7464    5.0628    0.4411 C.ar      1 <0>        -0.1028
     15 C10         8.6035    6.1423    0.3369 C.ar      1 <0>        -0.0134
     16 C11         9.7850    6.0235   -0.3744 C.ar      1 <0>        -0.1100
     17 C12        10.1142    4.8241   -0.9777 C.ar      1 <0>        -0.0773
     18 C13         9.2637    3.7394   -0.8727 C.ar      1 <0>        -0.0602
     19 Cl1         9.6782    2.2337   -1.6308 Cl        1 <0>        -0.0511
     20 Cl2         8.1947    7.6504    1.0933 Cl        1 <0>        -0.0501
     21 H1         -2.1382    1.2570    0.0788 H         1 <0>         0.1430
     22 H2          0.0017   -0.0014    0.0576 H         1 <0>         0.1493
     23 H3         -1.9867    3.8300    0.0871 H         1 <0>         0.1927
     24 H4          3.3710    3.1876    0.0060 H         1 <0>         0.4132
     25 H5          5.1407    1.1635    0.8706 H         1 <0>         0.1113
     26 H6          5.1141    1.1626   -0.9092 H         1 <0>         0.1118
     27 H7          7.5754    1.8610    0.0094 H         1 <0>         0.4205
     28 H8          6.8224    5.1575    0.9921 H         1 <0>         0.1607
     29 H9         10.4508    6.8697   -0.4584 H         1 <0>         0.1472
     30 H10        11.0368    4.7344   -1.5320 H         1 <0>         0.1503
@<TRIPOS>BOND
     1    1    5 2
     2    1    2 1
     3    1   21 1
     4    2    3 2
     5    2   22 1
     6    3    4 1
     7    3    6 1
     8    4    5 1
     9    5   23 1
    10    6    7 2
    11    6    8 am
    12    8    9 1
    13    8   24 1
    14    9   10 1
    15    9   25 1
    16    9   26 1
    17   10   11 2
    18   10   12 am
    19   12   13 1
    20   12   27 1
    21   13   18 ar
    22   13   14 ar
    23   14   15 ar
    24   14   28 1
    25   15   16 ar
    26   15   20 1
    27   16   17 ar
    28   16   29 1
    29   17   18 ar
    30   17   30 1
    31   18   19 1
