@<TRIPOS>MOLECULE
ZINC39974470
   63    66     0     0     0
SMALL
USER_CHARGES

@<TRIPOS>ATOM
      1 C1          6.0515   -4.0152    1.2490 C.3       1 <0>        -0.1664
      2 C2          5.3922   -2.9362    2.1104 C.3       1 <0>         0.1406
      3 H1          5.0193   -3.3820    3.0325 H         1 <0>         0.1042
      4 C3          6.4175   -1.8479    2.4441 C.3       1 <0>        -0.1258
      5 C4          6.8357   -1.1346    1.1564 C.3       1 <0>        -0.1210
      6 C5          5.6137   -0.4681    0.5204 C.3       1 <0>        -0.1273
      7 C6          4.5793   -1.5407    0.1649 C.3       1 <0>         0.1531
      8 H2          4.9827   -2.1956   -0.6074 H         1 <0>         0.0783
      9 N1          4.2773   -2.3287    1.3710 N.pl3     1 <0>        -0.9873
     10 S1          2.7161   -2.5249    1.8873 S.o2      1 <0>         2.6894
     11 O1          2.7874   -3.0248    3.2156 O.2       1 <0>        -0.9592
     12 O2          2.0267   -1.3261    1.5605 O.2       1 <0>        -0.9498
     13 C7          1.9996   -3.8013    0.9066 C.ar      1 <0>        -0.6725
     14 C8          1.2413   -3.4755   -0.2029 C.ar      1 <0>        -0.0146
     15 C9          0.6778   -4.4737   -0.9734 C.ar      1 <0>        -0.0961
     16 C10         0.8739   -5.8058   -0.6331 C.ar      1 <0>         0.1804
     17 C11         1.6364   -6.1297    0.4816 C.ar      1 <0>        -0.1432
     18 C12         2.2014   -5.1269    1.2449 C.ar      1 <0>        -0.0097
     19 N2          0.3043   -6.8191   -1.4111 N.pl3     1 <0>        -0.6293
     20 C13         0.2744   -6.7019   -2.7535 C.2       1 <0>         0.5426
     21 S2          1.0676   -5.3904   -3.5161 S.2       1 <0>        -0.5622
     22 N3         -0.3799   -7.6173   -3.4954 N.pl3     1 <0>        -0.6229
     23 C14        -0.3073   -7.5678   -4.8862 C.ar      1 <0>         0.1476
     24 C15         0.8976   -7.2541   -5.5078 C.ar      1 <0>        -0.0814
     25 C16         0.9727   -7.2043   -6.8813 C.ar      1 <0>        -0.0457
     26 C17        -0.1629   -7.4694   -7.6518 C.ar      1 <0>        -0.1288
     27 C18        -1.3715   -7.7841   -7.0243 C.ar      1 <0>        -0.0784
     28 C19        -1.4384   -7.8378   -5.6505 C.ar      1 <0>        -0.1282
     29 C20        -0.0861   -7.4165   -9.1245 C.2       1 <0>         0.5635
     30 O3          0.9659   -7.1421   -9.6690 O.2       1 <0>        -0.5286
     31 N4         -1.1821   -7.6723   -9.8661 N.am      1 <0>        -0.6994
     32 C21        -1.1059   -7.6198  -11.3282 C.3       1 <0>         0.0774
     33 C22        -2.2472   -6.9218  -12.0705 C.3       1 <0>        -0.1919
     34 C23        -2.1225   -8.4459  -12.1187 C.3       1 <0>        -0.1881
     35 C24         3.3016   -0.8718   -0.3459 C.3       1 <0>        -0.1869
     36 H3          6.4237   -3.5674    0.3276 H         1 <0>         0.0657
     37 H4          6.8814   -4.4610    1.7974 H         1 <0>         0.0691
     38 H5          5.3192   -4.7859    1.0085 H         1 <0>         0.0572
     39 H6          5.9731   -1.1278    3.1311 H         1 <0>         0.0688
     40 H7          7.2924   -2.3026    2.9088 H         1 <0>         0.0768
     41 H8          7.5836   -0.3762    1.3878 H         1 <0>         0.0661
     42 H9          7.2574   -1.8595    0.4602 H         1 <0>         0.0674
     43 H10         5.1768    0.2391    1.2255 H         1 <0>         0.0707
     44 H11         5.9164    0.0593   -0.3842 H         1 <0>         0.0761
     45 H12         1.0892   -2.4394   -0.4670 H         1 <0>         0.1517
     46 H13         0.0851   -4.2185   -1.8395 H         1 <0>         0.1561
     47 H14         1.7908   -7.1646    0.7489 H         1 <0>         0.1360
     48 H15         2.7981   -5.3781    2.1094 H         1 <0>         0.1431
     49 H16        -0.0692   -7.6062   -0.9846 H         1 <0>         0.4130
     50 H17        -0.9013   -8.3105   -3.0614 H         1 <0>         0.4119
     51 H18         1.7746   -7.0490   -4.9118 H         1 <0>         0.1528
     52 H19         1.9080   -6.9605   -7.3631 H         1 <0>         0.1446
     53 H20        -2.2509   -7.9891   -7.6168 H         1 <0>         0.1314
     54 H21        -2.3708   -8.0856   -5.1651 H         1 <0>         0.1331
     55 H22        -2.0213   -7.8912   -9.4317 H         1 <0>         0.4008
     56 H23        -0.1026   -7.5248  -11.7435 H         1 <0>         0.1404
     57 H24        -3.0548   -6.5016  -11.4710 H         1 <0>         0.0976
     58 H25        -1.9949   -6.3673  -12.9743 H         1 <0>         0.1046
     59 H26        -1.7881   -8.8942  -13.0543 H         1 <0>         0.1057
     60 H27        -2.8480   -9.0285  -11.5509 H         1 <0>         0.0975
     61 H28         3.4702   -0.4866   -1.3516 H         1 <0>         0.0726
     62 H29         2.4927   -1.6021   -0.3674 H         1 <0>         0.0637
     63 H30         3.0316   -0.0500    0.3173 H         1 <0>         0.0929
@<TRIPOS>BOND
     1    1    2 1
     2    1   36 1
     3    1   37 1
     4    1   38 1
     5    2    3 1
     6    2    9 1
     7    2    4 1
     8    4    5 1
     9    4   39 1
    10    4   40 1
    11    5    6 1
    12    5   41 1
    13    5   42 1
    14    6    7 1
    15    6   43 1
    16    6   44 1
    17    7    8 1
    18    7    9 1
    19    7   35 1
    20    9   10 1
    21   10   11 2
    22   10   12 2
    23   10   13 1
    24   13   18 ar
    25   13   14 ar
    26   14   15 ar
    27   14   45 1
    28   15   16 ar
    29   15   46 1
    30   16   17 ar
    31   16   19 1
    32   17   18 ar
    33   17   47 1
    34   18   48 1
    35   19   20 1
    36   19   49 1
    37   20   21 2
    38   20   22 1
    39   22   23 1
    40   22   50 1
    41   23   28 ar
    42   23   24 ar
    43   24   25 ar
    44   24   51 1
    45   25   26 ar
    46   25   52 1
    47   26   27 ar
    48   26   29 1
    49   27   28 ar
    50   27   53 1
    51   28   54 1
    52   29   30 2
    53   29   31 am
    54   31   32 1
    55   31   55 1
    56   32   34 1
    57   32   33 1
    58   32   56 1
    59   33   34 1
    60   33   57 1
    61   33   58 1
    62   34   59 1
    63   34   60 1
    64   35   61 1
    65   35   62 1
    66   35   63 1
