@<TRIPOS>MOLECULE
ZINC48823547
   38    41     0     0     0
SMALL
USER_CHARGES

@<TRIPOS>ATOM
      1 C1         -0.0167    1.3786    0.0096 C.ar      1 <0>        -0.1406
      2 C2          1.1697    2.0894    0.0021 C.ar      1 <0>        -0.0771
      3 C3          2.3777    1.4203   -0.0128 C.ar      1 <0>        -0.1526
      4 C4          2.3998    0.0318   -0.0205 C.ar      1 <0>         0.1817
      5 C5          1.2069   -0.6787   -0.0132 C.ar      1 <0>        -0.1261
      6 C6          0.0021   -0.0041    0.0020 C.ar      1 <0>        -0.0731
      7 C7          1.2313   -2.1851   -0.0223 C.3       1 <0>        -0.0835
      8 H1          0.3185   -2.5659    0.4357 H         1 <0>         0.1308
      9 C8          2.4429   -2.6813    0.7675 C.3       1 <0>        -0.1314
     10 C9          3.6795   -1.9471    0.3241 C.2       1 <0>         0.5186
     11 O1          4.7428   -2.5298    0.2902 O.2       1 <0>        -0.5168
     12 N1          3.6193   -0.6519   -0.0360 N.am      1 <0>        -0.6578
     13 C10         1.3230   -2.6771   -1.4438 C.2       1 <0>         0.3640
     14 O2          1.8856   -2.0101   -2.2786 O.2       1 <0>        -0.3739
     15 C11         0.7127   -4.0017   -1.8234 C.3       1 <0>         0.0610
     16 H2          0.7380   -4.6728   -0.9649 H         1 <0>         0.1662
     17 C12        -0.6827   -3.7962   -2.2447 C.1       1 <0>         0.2124
     18 N2         -1.7596   -3.6376   -2.5698 N.1       1 <0>        -0.3724
     19 C13         1.4959   -4.6087   -2.9588 C.2       1 <0>         0.0689
     20 N3          1.7010   -4.1095   -4.1427 N.2       1 <0>        -0.4657
     21 C14         2.4262   -4.7552   -5.0792 C.ar      1 <0>         0.0747
     22 C15         2.7478   -4.3722   -6.3981 C.ar      1 <0>        -0.0493
     23 C16         3.5029   -5.1824   -7.1896 C.ar      1 <0>        -0.1103
     24 C17         3.9806   -6.4037   -6.7344 C.ar      1 <0>        -0.0849
     25 C18         3.6866   -6.8132   -5.4474 C.ar      1 <0>        -0.0674
     26 C19         2.9253   -6.0026   -4.6407 C.ar      1 <0>        -0.1576
     27 S1          2.3092   -6.0821   -2.9793 S.3       1 <0>         0.1249
     28 H3         -0.9598    1.9045    0.0260 H         1 <0>         0.1295
     29 H4          1.1514    3.1692    0.0076 H         1 <0>         0.1315
     30 H5          3.3038    1.9760   -0.0189 H         1 <0>         0.1314
     31 H6         -0.9259   -0.5565    0.0080 H         1 <0>         0.1302
     32 H7          2.2789   -2.5052    1.8306 H         1 <0>         0.1269
     33 H8          2.5747   -3.7495    0.5950 H         1 <0>         0.1190
     34 H9          4.4274   -0.1894   -0.3078 H         1 <0>         0.4144
     35 H10         2.3916   -3.4282   -6.7834 H         1 <0>         0.1354
     36 H11         3.7357   -4.8676   -8.1961 H         1 <0>         0.1380
     37 H12         4.5773   -7.0296   -7.3814 H         1 <0>         0.1425
     38 H13         4.0518   -7.7607   -5.0796 H         1 <0>         0.1387
@<TRIPOS>BOND
     1    1    6 ar
     2    1    2 ar
     3    1   28 1
     4    2    3 ar
     5    2   29 1
     6    3    4 ar
     7    3   30 1
     8    4   12 1
     9    4    5 ar
    10    5    6 ar
    11    5    7 1
    12    6   31 1
    13    7    8 1
    14    7    9 1
    15    7   13 1
    16    9   10 1
    17    9   32 1
    18    9   33 1
    19   10   11 2
    20   10   12 am
    21   12   34 1
    22   13   14 2
    23   13   15 1
    24   15   16 1
    25   15   17 1
    26   15   19 1
    27   17   18 3
    28   19   27 1
    29   19   20 2
    30   20   21 1
    31   21   26 ar
    32   21   22 ar
    33   22   23 ar
    34   22   35 1
    35   23   24 ar
    36   23   36 1
    37   24   25 ar
    38   24   37 1
    39   25   26 ar
    40   25   38 1
    41   26   27 1
