@<TRIPOS>MOLECULE
ZINC48641089
   33    34     0     0     0
SMALL
USER_CHARGES

@<TRIPOS>ATOM
      1 C1         -0.0157    1.3058    0.0092 C.2       1 <0>        -0.1149
      2 C2          0.0021   -0.0041    0.0020 C.2       1 <0>        -0.2160
      3 C3          1.3172   -0.7397   -0.0145 C.3       1 <0>         0.1113
      4 N1          1.3674   -1.6756    1.1115 N.pl3     1 <0>        -0.5977
      5 C4          2.4216   -2.4219    1.2927 C.cat     1 <0>         0.4585
      6 N2          2.4688   -3.3007    2.3500 N.pl3     1 <0>        -0.8021
      7 S1          3.7854   -2.3046    0.1832 S.3       1 <0>         0.0916
      8 C5          4.9812   -3.5060    0.8290 C.3       1 <0>        -0.0653
      9 C6          6.2122   -3.5065   -0.0403 C.2       1 <0>         0.0392
     10 C7          6.2897   -4.3423   -1.1131 C.2       1 <0>        -0.1748
     11 S2          7.9099   -3.9203   -1.7423 S.3       1 <0>         0.1589
     12 C8          8.3045   -2.6829   -0.5134 C.2       1 <0>         0.1625
     13 N3          7.2075   -2.6997    0.2309 N.2       1 <0>        -0.4553
     14 C9          9.5232   -1.8589   -0.3695 C.ar      1 <0>         0.3814
     15 N4          9.6067   -0.9947    0.6348 N.ar      1 <0>        -0.4783
     16 C10        10.6826   -0.2437    0.7916 C.ar      1 <0>         0.1545
     17 C11        11.7313   -0.3668   -0.1083 C.ar      1 <0>        -0.2042
     18 C12        11.6118   -1.2794   -1.1463 C.ar      1 <0>         0.1602
     19 N5         10.5111   -2.0042   -1.2443 N.ar      1 <0>        -0.4998
     20 H1          0.9122    1.8585    0.0033 H         1 <0>         0.1095
     21 H2         -0.9582    1.8330    0.0166 H         1 <0>         0.1202
     22 H3         -0.9258   -0.5567    0.0079 H         1 <0>         0.1301
     23 H4          1.4134   -1.2911   -0.9498 H         1 <0>         0.1184
     24 H5          2.1349   -0.0241    0.0711 H         1 <0>         0.1136
     25 H6          1.7180   -3.3653    2.9608 H         1 <0>         0.4284
     26 H7          3.2528   -3.8558    2.4847 H         1 <0>         0.4369
     27 H8          5.2561   -3.2332    1.8479 H         1 <0>         0.1308
     28 H9          4.5345   -4.5003    0.8270 H         1 <0>         0.1297
     29 H10         5.5722   -5.0606   -1.4814 H         1 <0>         0.2134
     30 H11        10.7447    0.4579    1.6103 H         1 <0>         0.1818
     31 H12        12.6218    0.2352   -0.0031 H         1 <0>         0.1619
     32 H13        12.4104   -1.3990   -1.8634 H         1 <0>         0.1842
     33 H14         0.6167   -1.7402    1.7223 H         1 <0>         0.4315
@<TRIPOS>BOND
     1    1    2 2
     2    1   20 1
     3    1   21 1
     4    2    3 1
     5    2   22 1
     6    3    4 1
     7    3   23 1
     8    3   24 1
     9    4    5 2
    10    4   33 1
    11    5    6 1
    12    5    7 1
    13    6   25 1
    14    6   26 1
    15    7    8 1
    16    8    9 1
    17    8   27 1
    18    8   28 1
    19    9   13 1
    20    9   10 2
    21   10   11 1
    22   10   29 1
    23   11   12 1
    24   12   13 2
    25   12   14 1
    26   14   19 ar
    27   14   15 ar
    28   15   16 ar
    29   16   17 ar
    30   16   30 1
    31   17   18 ar
    32   17   31 1
    33   18   19 ar
    34   18   32 1
