@<TRIPOS>MOLECULE
ZINC52838999
   39    41     0     0     0
SMALL
USER_CHARGES

@<TRIPOS>ATOM
      1 C1         -0.0173    1.4248    0.0099 C.3       1 <0>         0.0208
      2 O1          0.0021   -0.0041    0.0020 O.3       1 <0>        -0.2917
      3 C2          0.6063   -0.6076   -1.0565 C.ar      1 <0>         0.1244
      4 C3          1.1715    0.1593   -2.0599 C.ar      1 <0>        -0.1456
      5 C4          1.7903   -0.4621   -3.1440 C.ar      1 <0>        -0.0244
      6 C5          1.8370   -1.8548   -3.2127 C.ar      1 <0>        -0.0658
      7 C6          1.2711   -2.6149   -2.2081 C.ar      1 <0>        -0.1470
      8 C7          0.6609   -1.9968   -1.1276 C.ar      1 <0>         0.1406
      9 O2          0.1099   -2.7493   -0.1372 O.3       1 <0>        -0.2912
     10 C8          0.2018   -4.1688   -0.2736 C.3       1 <0>         0.0173
     11 Br1         2.6747   -2.7016   -4.6814 Br        1 <0>        -0.0222
     12 C9          2.3966    0.3551   -4.2212 C.2       1 <0>        -0.0338
     13 C10         1.9813    0.4091   -5.5224 C.2       1 <0>         0.4191
     14 N1          2.8178    1.2823   -6.1639 N.pl3     1 <0>        -0.2798
     15 C11         3.7147    1.7343   -5.2432 C.cat     1 <0>         0.3065
     16 N2          3.4544    1.1838   -4.0918 N.pl3     1 <0>        -0.4296
     17 C12         4.8251    2.7169   -5.5124 C.3       1 <0>        -0.1395
     18 C13         5.2040    3.6806   -4.3860 C.3       1 <0>        -0.1447
     19 C14         6.1382    2.5251   -4.7509 C.3       1 <0>        -0.1435
     20 N3          2.7638    1.6347   -7.4825 N.3       1 <0>        -0.5719
     21 N4          0.9165   -0.2880   -6.0851 N.pl3     1 <0>        -0.8042
     22 H1          1.0053    1.8021    0.0021 H         1 <0>         0.0579
     23 H2         -0.5445    1.7859   -0.8732 H         1 <0>         0.0595
     24 H3         -0.5275    1.7763    0.9067 H         1 <0>         0.1126
     25 H4          1.1332    1.2372   -2.0037 H         1 <0>         0.1490
     26 H5          1.3077   -3.6930   -2.2622 H         1 <0>         0.1583
     27 H6         -0.2756   -4.6476    0.5813 H         1 <0>         0.1135
     28 H7         -0.2995   -4.4790   -1.1905 H         1 <0>         0.0634
     29 H8          1.2506   -4.4627   -0.3157 H         1 <0>         0.0632
     30 H9          4.8861    3.0888   -6.5351 H         1 <0>         0.1516
     31 H10         5.5143    4.6868   -4.6676 H         1 <0>         0.1306
     32 H11         4.6502    3.6038   -3.4503 H         1 <0>         0.1077
     33 H12         6.1989    1.6881   -4.0553 H         1 <0>         0.1093
     34 H13         7.0630    2.7712   -5.2726 H         1 <0>         0.1311
     35 H14         2.1710    2.4400   -7.6176 H         1 <0>         0.3858
     36 H15         3.6884    1.8006   -7.8507 H         1 <0>         0.3949
     37 H16         0.3846   -0.8861   -5.5371 H         1 <0>         0.4327
     38 H17         0.7062   -0.1759   -7.0253 H         1 <0>         0.4262
     39 H18         3.9452    1.3428   -3.2703 H         1 <0>         0.4587
@<TRIPOS>BOND
     1    1    2 1
     2    1   22 1
     3    1   23 1
     4    1   24 1
     5    2    3 1
     6    3    8 ar
     7    3    4 ar
     8    4    5 ar
     9    4   25 1
    10    5    6 ar
    11    5   12 1
    12    6    7 ar
    13    6   11 1
    14    7    8 ar
    15    7   26 1
    16    8    9 1
    17    9   10 1
    18   10   27 1
    19   10   28 1
    20   10   29 1
    21   12   16 1
    22   12   13 2
    23   13   14 1
    24   13   21 1
    25   14   15 1
    26   14   20 1
    27   15   16 2
    28   15   17 1
    29   16   39 1
    30   17   19 1
    31   17   18 1
    32   17   30 1
    33   18   19 1
    34   18   31 1
    35   18   32 1
    36   19   33 1
    37   19   34 1
    38   20   35 1
    39   20   36 1
    40   21   37 1
    41   21   38 1
