@<TRIPOS>MOLECULE
ZINC20149514
   48    51     0     0     0
SMALL
USER_CHARGES
(4S)-4-[(1-methylimidazol-2-yl)methylamino]-1-(1-naphthylmethyl)pyrrolidin-2-one
@<TRIPOS>ATOM
      1 C1         -6.9254    0.2084   -6.7992 C.3       1 <0>         0.0479
      2 N1         -5.9640   -0.8291   -7.1806 N.pl3     1 <0>        -0.4066
      3 C2         -6.2164   -1.9211   -7.9663 C.2       1 <0>         0.0225
      4 C3         -5.0619   -2.6077   -8.0618 C.2       1 <0>         0.0011
      5 N2         -4.1287   -1.9502   -7.3576 N.pl3     1 <0>        -0.4801
      6 C4         -4.6630   -0.8864   -6.8230 C.cat     1 <0>         0.3162
      7 C5         -3.9456    0.1155   -5.9555 C.3       1 <0>         0.0956
      8 N3         -4.0542   -0.2892   -4.5475 N.3       1 <0>        -0.6645
      9 C6         -3.3648    0.6665   -3.6704 C.3       1 <0>         0.0666
     10 H1         -2.5436    1.0297   -4.3058 H         1 <0>         0.1093
     11 C7         -4.3396    1.7537   -3.1619 C.3       1 <0>        -0.1822
     12 C8         -3.9024    2.0089   -1.7363 C.2       1 <0>         0.5213
     13 O1         -4.2219    2.9732   -1.0737 O.2       1 <0>        -0.5070
     14 N4         -3.1058    1.0128   -1.3118 N.am      1 <0>        -0.6137
     15 C9         -2.9298   -0.0086   -2.3508 C.3       1 <0>         0.1132
     16 C10        -2.4967    0.9517    0.0191 C.3       1 <0>         0.1662
     17 C11        -1.1984    1.7170    0.0131 C.ar      1 <0>        -0.0943
     18 C12        -0.7108    2.2278   -1.1507 C.ar      1 <0>        -0.1054
     19 C13         0.4847    2.9430   -1.1749 C.ar      1 <0>        -0.1193
     20 C14         1.2027    3.1469   -0.0365 C.ar      1 <0>        -0.0999
     21 C15         0.7340    2.6298    1.1830 C.ar      1 <0>        -0.0499
     22 C16        -0.4823    1.9022    1.2076 C.ar      1 <0>        -0.0419
     23 C17        -0.9511    1.3848    2.4274 C.ar      1 <0>        -0.1152
     24 C18        -0.2336    1.5891    3.5656 C.ar      1 <0>        -0.1067
     25 C19         0.9620    2.3050    3.5415 C.ar      1 <0>        -0.1139
     26 C20         1.4471    2.8202    2.3790 C.ar      1 <0>        -0.1031
     27 H2         -7.9055   -0.0186   -7.2439 H         1 <0>         0.1257
     28 H3         -6.5747    1.1851   -7.1638 H         1 <0>         0.1122
     29 H4         -7.0178    0.2377   -5.7035 H         1 <0>         0.1092
     30 H5         -7.1603   -2.1822   -8.4217 H         1 <0>         0.2219
     31 H6         -4.9124   -3.5247   -8.6125 H         1 <0>         0.2237
     32 H7         -2.8850    0.1575   -6.2442 H         1 <0>         0.1313
     33 H8         -4.4012    1.1079   -6.0879 H         1 <0>         0.0921
     34 H9         -5.1148   -0.3312   -4.2588 H         1 <0>         0.3514
     35 H10        -4.2458    2.6525   -3.7890 H         1 <0>         0.1085
     36 H11        -5.3711    1.3753   -3.2153 H         1 <0>         0.1094
     37 H12        -3.5640   -0.8873   -2.1621 H         1 <0>         0.0874
     38 H13        -1.8792   -0.3248   -2.4297 H         1 <0>         0.0909
     39 H14        -3.1812    1.3966    0.7563 H         1 <0>         0.1005
     40 H15        -2.3025   -0.0977    0.2857 H         1 <0>         0.1004
     41 H16        -1.2611    2.0803   -2.0682 H         1 <0>         0.1145
     42 H17         0.8475    3.3412   -2.1110 H         1 <0>         0.1220
     43 H18         2.1279    3.7029   -0.0705 H         1 <0>         0.1290
     44 H19        -1.8757    0.8278    2.4612 H         1 <0>         0.1261
     45 H20        -0.5959    1.1902    4.5015 H         1 <0>         0.1263
     46 H21         1.5120    2.4529    4.4591 H         1 <0>         0.1267
     47 H22         2.3754    3.3723    2.3755 H         1 <0>         0.1297
     48 H23        -3.1013   -2.3400   -7.3075 H         1 <0>         0.5047
@<TRIPOS>BOND
     1    1    2 1
     2    1   27 1
     3    1   28 1
     4    1   29 1
     5    2    6 1
     6    2    3 1
     7    3    4 2
     8    3   30 1
     9    4    5 1
    10    4   31 1
    11    5    6 2
    12    5   48 1
    13    6    7 1
    14    7    8 1
    15    7   32 1
    16    7   33 1
    17    8    9 1
    18    8   34 1
    19    9   10 1
    20    9   15 1
    21    9   11 1
    22   11   12 1
    23   11   35 1
    24   11   36 1
    25   12   13 2
    26   12   14 am
    27   14   15 1
    28   14   16 1
    29   15   37 1
    30   15   38 1
    31   16   17 1
    32   16   39 1
    33   16   40 1
    34   17   22 ar
    35   17   18 ar
    36   18   19 ar
    37   18   41 1
    38   19   20 ar
    39   19   42 1
    40   20   21 ar
    41   20   43 1
    42   21   26 ar
    43   21   22 ar
    44   22   23 ar
    45   23   24 ar
    46   23   44 1
    47   24   25 ar
    48   24   45 1
    49   25   26 ar
    50   25   46 1
    51   26   47 1
