@<TRIPOS>MOLECULE
ZINC44338945
   34    34     0     0     0
SMALL
USER_CHARGES

@<TRIPOS>ATOM
      1 C1         -0.0187    1.5258    0.0104 C.3       1 <0>        -0.1498
      2 C2          0.0021   -0.0041    0.0020 C.3       1 <0>        -0.0855
      3 C3         -1.4117   -0.5257    0.0127 C.ar      1 <0>        -0.0833
      4 C4         -2.0148   -0.8638    1.2089 C.ar      1 <0>        -0.0563
      5 C5         -3.3125   -1.3426    1.2193 C.ar      1 <0>        -0.0916
      6 C6         -4.0093   -1.4840    0.0323 C.ar      1 <0>        -0.0984
      7 C7         -3.4102   -1.1467   -1.1657 C.ar      1 <0>        -0.1523
      8 C8         -2.1105   -0.6613   -1.1778 C.ar      1 <0>         0.1421
      9 O1         -1.5208   -0.3244   -2.3551 O.3       1 <0>        -0.4802
     10 C9         -4.1694   -1.3014   -2.4582 C.3       1 <0>        -0.0893
     11 C10        -3.8314   -2.6535   -3.0896 C.3       1 <0>         0.0444
     12 H1         -2.7512   -2.7397   -3.2070 H         1 <0>         0.1759
     13 C11        -4.4933   -2.7571   -4.4394 C.2       1 <0>         0.4541
     14 O2         -5.5220   -3.3789   -4.5617 O.2       1 <0>        -0.4816
     15 O3         -3.9400   -2.1586   -5.5059 O.3       1 <0>        -0.3252
     16 C12        -4.6214   -2.2981   -6.7543 C.3       1 <0>         0.0288
     17 N1         -4.3174   -3.7344   -2.2216 N.4       1 <0>        -0.6250
     18 Br1        -4.1351   -1.8051    2.8579 Br        1 <0>        -0.0188
     19 H2          1.0039    1.9031    0.0027 H         1 <0>         0.0678
     20 H3         -0.5459    1.8868   -0.8726 H         1 <0>         0.0619
     21 H4         -0.5289    1.8773    0.9072 H         1 <0>         0.0572
     22 H5          0.5123   -0.3556   -0.8948 H         1 <0>         0.0809
     23 H6          0.5293   -0.3651    0.8851 H         1 <0>         0.0809
     24 H7         -1.4725   -0.7545    2.1365 H         1 <0>         0.1476
     25 H8         -5.0221   -1.8587    0.0425 H         1 <0>         0.1408
     26 H9         -1.0466   -1.0522   -2.7800 H         1 <0>         0.3944
     27 H10        -5.2399   -1.2509   -2.2591 H         1 <0>         0.1123
     28 H11        -3.8889   -0.5006   -3.1424 H         1 <0>         0.1423
     29 H12        -4.6905   -3.3544   -7.0143 H         1 <0>         0.0745
     30 H13        -5.6237   -1.8783   -6.6700 H         1 <0>         0.0755
     31 H14        -4.0695   -1.7682   -7.5306 H         1 <0>         0.1225
     32 H15        -4.0945   -4.6260   -2.6380 H         1 <0>         0.4438
     33 H16        -3.8742   -3.6650   -1.3178 H         1 <0>         0.4456
     34 H17        -5.3174   -3.6546   -2.1129 H         1 <0>         0.4440
@<TRIPOS>BOND
     1    1    2 1
     2    1   19 1
     3    1   20 1
     4    1   21 1
     5    2    3 1
     6    2   22 1
     7    2   23 1
     8    3    8 ar
     9    3    4 ar
    10    4    5 ar
    11    4   24 1
    12    5    6 ar
    13    5   18 1
    14    6    7 ar
    15    6   25 1
    16    7    8 ar
    17    7   10 1
    18    8    9 1
    19    9   26 1
    20   10   11 1
    21   10   27 1
    22   10   28 1
    23   11   12 1
    24   11   13 1
    25   11   17 1
    26   13   14 2
    27   13   15 1
    28   15   16 1
    29   16   29 1
    30   16   30 1
    31   16   31 1
    32   17   32 1
    33   17   33 1
    34   17   34 1
