@<TRIPOS>MOLECULE
ZINC41908480
   44    45     0     0     0
SMALL
USER_CHARGES

@<TRIPOS>ATOM
      1 C1          1.5105    2.6033   -0.4619 C.3       1 <0>        -0.1410
      2 C2          1.0940    1.1595   -0.1741 C.3       1 <0>        -0.0640
      3 C3          1.8340    0.6527    1.0654 C.3       1 <0>        -0.1419
      4 C4         -0.4147    1.1038    0.0743 C.3       1 <0>        -0.1409
      5 C5          1.4462    0.2782   -1.3742 C.3       1 <0>        -0.0790
      6 C6          1.0296   -1.1656   -1.0864 C.3       1 <0>        -0.1100
      7 C7          1.3818   -2.0469   -2.2865 C.3       1 <0>        -0.1067
      8 C8          2.8905   -1.9912   -2.5349 C.3       1 <0>         0.1144
      9 C9          3.3070   -0.5474   -2.8227 C.3       1 <0>        -0.1176
     10 C10         2.9548    0.3339   -1.6226 C.3       1 <0>        -0.1077
     11 C11         3.2374   -2.8592   -3.7169 C.2       1 <0>         0.5006
     12 O1          2.7501   -2.6243   -4.8096 O.co2     1 <0>        -0.6851
     13 O2          4.0053   -3.7963   -3.5806 O.co2     1 <0>        -0.6828
     14 N1          3.5990   -2.4765   -1.3480 N.am      1 <0>        -0.5284
     15 C12         3.0226   -3.1914   -0.3617 C.2       1 <0>         0.5194
     16 O3          1.8638   -3.5409   -0.2918 O.2       1 <0>        -0.4796
     17 C13         4.1245   -3.4682    0.6417 C.3       1 <0>         0.0637
     18 N2          5.3047   -2.8160    0.0485 N.am      1 <0>        -0.6413
     19 C14         4.8997   -2.2696   -1.1122 C.2       1 <0>         0.7100
     20 O4          5.6325   -1.6540   -1.8612 O.2       1 <0>        -0.5355
     21 C15         6.6569   -2.7743    0.6108 C.3       1 <0>         0.1269
     22 H1          2.5853    2.6430   -0.6389 H         1 <0>         0.0571
     23 H2          0.9833    2.9644   -1.3450 H         1 <0>         0.0528
     24 H3          1.2596    3.2311    0.3931 H         1 <0>         0.0481
     25 H4          1.5831    1.2805    1.9204 H         1 <0>         0.0475
     26 H5          1.5373   -0.3759    1.2705 H         1 <0>         0.0557
     27 H6          2.9088    0.6923    0.8885 H         1 <0>         0.0541
     28 H7         -0.9419    1.4649   -0.8088 H         1 <0>         0.0525
     29 H8         -0.7114    0.0752    0.2793 H         1 <0>         0.0585
     30 H9         -0.6656    1.7316    0.9293 H         1 <0>         0.0479
     31 H10         0.9190    0.6393   -2.2573 H         1 <0>         0.0685
     32 H11         1.5568   -1.5267   -0.2033 H         1 <0>         0.0637
     33 H12        -0.0452   -1.2053   -0.9094 H         1 <0>         0.0593
     34 H13         1.0851   -3.0755   -2.0814 H         1 <0>         0.0808
     35 H14         0.8546   -1.6858   -3.1695 H         1 <0>         0.0760
     36 H15         4.3818   -0.5077   -2.9996 H         1 <0>         0.0868
     37 H16         2.7798   -0.1863   -3.7057 H         1 <0>         0.0770
     38 H17         3.2516    1.3625   -1.8276 H         1 <0>         0.0593
     39 H18         3.4820   -0.0272   -0.7395 H         1 <0>         0.0524
     40 H19         3.8849   -3.0227    1.6072 H         1 <0>         0.1106
     41 H20         4.2898   -4.5408    0.7435 H         1 <0>         0.1127
     42 H21         7.2247   -3.6343    0.2557 H         1 <0>         0.0560
     43 H22         7.1531   -1.8563    0.2961 H         1 <0>         0.0775
     44 H23         6.5989   -2.8014    1.6989 H         1 <0>         0.0719
@<TRIPOS>BOND
     1    1    2 1
     2    1   22 1
     3    1   23 1
     4    1   24 1
     5    2    3 1
     6    2    4 1
     7    2    5 1
     8    3   25 1
     9    3   26 1
    10    3   27 1
    11    4   28 1
    12    4   29 1
    13    4   30 1
    14    5   10 1
    15    5    6 1
    16    5   31 1
    17    6    7 1
    18    6   32 1
    19    6   33 1
    20    7    8 1
    21    7   34 1
    22    7   35 1
    23    8    9 1
    24    8   11 1
    25    8   14 1
    26    9   10 1
    27    9   36 1
    28    9   37 1
    29   10   38 1
    30   10   39 1
    31   11   12 2
    32   11   13 1
    33   14   19 am
    34   14   15 am
    35   15   16 2
    36   15   17 1
    37   17   18 1
    38   17   40 1
    39   17   41 1
    40   18   19 am
    41   18   21 1
    42   19   20 2
    43   21   42 1
    44   21   43 1
    45   21   44 1
