@<TRIPOS>MOLECULE
ZINC28531921
   27    28     0     0     0
SMALL
USER_CHARGES
5-[(E)-2-(4-fluorophenyl)vinyl]-4-methyl-1,2,4-triazol-3-amine
@<TRIPOS>ATOM
      1 C1         -2.7837   -0.3528    0.0129 C.3       1 <0>         0.0732
      2 N1         -2.4608    1.0761    0.0196 N.pl3     1 <0>        -0.5095
      3 C2         -3.3487    2.1306    0.0295 C.2       1 <0>         0.1837
      4 N2         -2.6328    3.2357    0.0321 N.2       1 <0>        -0.2551
      5 N3         -1.3808    2.9455    0.0303 N.2       1 <0>        -0.3532
      6 C3         -1.2182    1.6410    0.0167 C.2       1 <0>         0.4609
      7 N4         -0.0111    0.9658    0.0074 N.pl3     1 <0>        -0.8521
      8 C4         -4.8116    2.0391    0.0359 C.2       1 <0>        -0.0856
      9 C5         -5.5565    3.1611    0.0456 C.2       1 <0>        -0.0633
     10 C6         -7.0261    3.0691    0.0520 C.ar      1 <0>        -0.0696
     11 C7         -7.6513    1.8186    0.0424 C.ar      1 <0>        -0.0832
     12 C8         -9.0275    1.7393    0.0539 C.ar      1 <0>        -0.1525
     13 C9         -9.7913    2.8961    0.0638 C.ar      1 <0>         0.1019
     14 C10        -9.1776    4.1391    0.0681 C.ar      1 <0>        -0.1519
     15 C11        -7.8022    4.2321    0.0620 C.ar      1 <0>        -0.0706
     16 F1        -11.1397    2.8117    0.0689 F         1 <0>        -0.1379
     17 H1         -3.8761   -0.4819    0.0176 H         1 <0>         0.0966
     18 H2         -2.3543   -0.8299    0.9062 H         1 <0>         0.0820
     19 H3         -2.3632   -0.8195   -0.8901 H         1 <0>         0.0820
     20 H4          0.9340    1.5287    0.0059 H         1 <0>         0.4504
     21 H5          0.0038   -0.1341    0.0015 H         1 <0>         0.4274
     22 H6         -5.3010    1.0540    0.0328 H         1 <0>         0.1330
     23 H7         -5.0671    4.1462    0.0487 H         1 <0>         0.1423
     24 H8         -7.0574    0.9167    0.0298 H         1 <0>         0.1340
     25 H9         -9.5117    0.7739    0.0503 H         1 <0>         0.1377
     26 H10        -9.7783    5.0366    0.0758 H         1 <0>         0.1394
     27 H11        -7.3253    5.2010    0.0646 H         1 <0>         0.1399
@<TRIPOS>BOND
     1    1    2 1
     2    1   17 1
     3    1   18 1
     4    1   19 1
     5    2    6 1
     6    2    3 1
     7    3    4 2
     8    3    8 1
     9    4    5 1
    10    5    6 2
    11    6    7 1
    12    7   20 1
    13    7   21 1
    14    8    9 2
    15    8   22 1
    16    9   10 1
    17    9   23 1
    18   10   15 ar
    19   10   11 ar
    20   11   12 ar
    21   11   24 1
    22   12   13 ar
    23   12   25 1
    24   13   14 ar
    25   13   16 1
    26   14   15 ar
    27   14   26 1
    28   15   27 1
