@<TRIPOS>MOLECULE
ZINC52019804
   26    26     0     0     0
SMALL
USER_CHARGES

@<TRIPOS>ATOM
      1 C1         -0.0186    1.5216    0.0104 C.3       1 <0>        -0.1227
      2 C2          1.4130    2.0638   -0.0003 C.3       1 <0>        -0.6087
      3 S1          2.2230    1.5542   -1.5453 S.o2      1 <0>         2.4167
      4 O1          3.6158    1.8121   -1.4316 O.2       1 <0>        -0.9204
      5 O2          1.5025    2.1085   -2.6374 O.2       1 <0>        -0.9197
      6 C3          1.9654   -0.2447   -1.5323 C.3       1 <0>        -0.6135
      7 C4          0.4723   -0.5298   -1.3510 C.3       1 <0>        -0.1374
      8 C5          0.0021   -0.0041    0.0020 C.3       1 <0>         0.1121
      9 N1         -1.3473   -0.5064    0.2724 N.pl3     1 <0>        -0.6891
     10 C6         -1.5180   -1.7508    0.8140 C.cat     1 <0>         0.7454
     11 N2         -2.7448   -2.2075    1.0598 N.pl3     1 <0>        -0.7901
     12 N3         -0.4575   -2.5058    1.0956 N.pl3     1 <0>        -0.7950
     13 H1         -0.5314    1.8716    0.9063 H         1 <0>         0.1076
     14 H2         -0.5484    1.8812   -0.8717 H         1 <0>         0.1069
     15 H3          1.3917    3.1519    0.0591 H         1 <0>         0.1543
     16 H4          1.9625    1.6606    0.8503 H         1 <0>         0.1413
     17 H5          2.3061   -0.6691   -2.4766 H         1 <0>         0.1529
     18 H6          2.5244   -0.6876   -0.7080 H         1 <0>         0.1398
     19 H7         -0.0891   -0.0380   -2.1453 H         1 <0>         0.1086
     20 H8          0.3006   -1.6051   -1.4009 H         1 <0>         0.0952
     21 H9          0.6788   -0.3582    0.7797 H         1 <0>         0.1090
     22 H10        -2.1196    0.0434    0.0673 H         1 <0>         0.4400
     23 H11        -3.5172   -1.6577    0.8548 H         1 <0>         0.4428
     24 H12         0.4360   -2.1732    0.9166 H         1 <0>         0.4385
     25 H13        -0.5786   -3.3883    1.4797 H         1 <0>         0.4426
     26 H14        -2.8659   -3.0900    1.4439 H         1 <0>         0.4428
@<TRIPOS>BOND
     1    1    8 1
     2    1    2 1
     3    1   13 1
     4    1   14 1
     5    2    3 1
     6    2   15 1
     7    2   16 1
     8    3    4 2
     9    3    5 2
    10    3    6 1
    11    6    7 1
    12    6   17 1
    13    6   18 1
    14    7    8 1
    15    7   19 1
    16    7   20 1
    17    8    9 1
    18    8   21 1
    19    9   10 1
    20    9   22 1
    21   10   11 2
    22   10   12 1
    23   11   23 1
    24   11   26 1
    25   12   24 1
    26   12   25 1
