@<TRIPOS>MOLECULE
ZINC27817819
   26    28     0     0     0
SMALL
USER_CHARGES
N-(3-bromophenyl)pteridin-4-amine
@<TRIPOS>ATOM
      1 C1         -1.1104    2.9198   -0.7519 C.ar      1 <0>        -0.0919
      2 C2          0.0735    3.6313   -0.7458 C.ar      1 <0>        -0.0965
      3 C3          1.1562    3.1695   -0.0084 C.ar      1 <0>         0.1541
      4 C4          1.0446    1.9926    0.7212 C.ar      1 <0>        -0.1151
      5 C5         -0.1424    1.2855    0.7110 C.ar      1 <0>        -0.0717
      6 C6         -1.2208    1.7519   -0.0205 C.ar      1 <0>        -0.1019
      7 Br1        -0.2963   -0.3164    1.7041 Br        1 <0>        -0.0423
      8 N1          2.3552    3.8876   -0.0000 N.pl3     1 <0>        -0.6264
      9 C7          2.3358    5.2627   -0.0965 C.ar      1 <0>         0.5036
     10 C8          3.5748    6.0323   -0.2101 C.ar      1 <0>        -0.0553
     11 C9          3.4681    7.4418   -0.3108 C.ar      1 <0>         0.3280
     12 N2          4.5764    8.1772   -0.4208 N.ar      1 <0>        -0.4255
     13 C10         5.7512    7.5843   -0.4239 C.ar      1 <0>         0.1301
     14 C11         5.8509    6.1960   -0.3302 C.ar      1 <0>         0.0488
     15 N3          4.7706    5.4517   -0.2259 N.ar      1 <0>        -0.3958
     16 N4          2.2480    7.9948   -0.2858 N.ar      1 <0>        -0.5386
     17 C12         1.1712    7.2561   -0.1767 C.ar      1 <0>         0.3805
     18 N5          1.1924    5.9372   -0.0842 N.ar      1 <0>        -0.5827
     19 H1         -1.9524    3.2787   -1.3252 H         1 <0>         0.1384
     20 H2          0.1574    4.5458   -1.3143 H         1 <0>         0.1435
     21 H3          1.8844    1.6310    1.2959 H         1 <0>         0.1365
     22 H4         -2.1492    1.2001   -0.0232 H         1 <0>         0.1360
     23 H5          3.3144    3.3556    0.0836 H         1 <0>         0.4621
     24 H6          6.6487    8.1790   -0.5088 H         1 <0>         0.1873
     25 H7          6.8239    5.7276   -0.3436 H         1 <0>         0.1853
     26 H8          0.2122    7.7526   -0.1610 H         1 <0>         0.2093
@<TRIPOS>BOND
     1    1    6 ar
     2    1    2 ar
     3    1   19 1
     4    2    3 ar
     5    2   20 1
     6    3    4 ar
     7    3    8 1
     8    4    5 ar
     9    4   21 1
    10    5    6 ar
    11    5    7 1
    12    6   22 1
    13    8    9 1
    14    8   23 1
    15    9   18 ar
    16    9   10 ar
    17   10   15 ar
    18   10   11 ar
    19   11   12 ar
    20   11   16 ar
    21   12   13 ar
    22   13   14 ar
    23   13   24 1
    24   14   15 ar
    25   14   25 1
    26   16   17 ar
    27   17   18 ar
    28   17   26 1
