@<TRIPOS>MOLECULE
ZINC26472996
   29    30     0     0     0
SMALL
USER_CHARGES
5-[(2,4-dimethylphenoxy)methyl]-1,3,4-oxadiazol-2-amine
@<TRIPOS>ATOM
      1 C1          9.5676    0.3728   -2.1705 C.3       1 <0>        -0.1141
      2 C2          8.0763    0.4210   -1.9589 C.ar      1 <0>        -0.1155
      3 C3          7.5611    0.4326   -0.6756 C.ar      1 <0>        -0.0855
      4 C4          6.1946    0.4764   -0.4791 C.ar      1 <0>        -0.2003
      5 C5          5.3386    0.5092   -1.5706 C.ar      1 <0>         0.1212
      6 C6          5.8577    0.4922   -2.8569 C.ar      1 <0>        -0.1059
      7 C7          7.2255    0.4532   -3.0481 C.ar      1 <0>        -0.0833
      8 C8          4.9306    0.5214   -4.0446 C.3       1 <0>        -0.1076
      9 O1          3.9938    0.5523   -1.3799 O.3       1 <0>        -0.3079
     10 C9          3.5302    0.5615   -0.0282 C.3       1 <0>         0.1675
     11 C10         2.0241    0.6107   -0.0140 C.2       1 <0>         0.1204
     12 N1          1.2218   -0.4131   -0.0118 N.2       1 <0>        -0.2242
     13 N2          0.0021   -0.0041    0.0020 N.2       1 <0>        -0.3554
     14 C11        -0.0157    1.3065    0.0092 C.2       1 <0>         0.4426
     15 O2          1.2640    1.7232   -0.0008 O.3       1 <0>        -0.2464
     16 N3         -1.1399    2.1112    0.0192 N.pl3     1 <0>        -0.8172
     17 H1         10.0758    0.3523   -1.1952 H         1 <0>         0.0651
     18 H2          9.8872    1.2631   -2.7319 H         1 <0>         0.0688
     19 H3          9.8282   -0.5322   -2.7389 H         1 <0>         0.0693
     20 H4          8.2278    0.4071    0.1736 H         1 <0>         0.1264
     21 H5          5.7928    0.4847    0.5233 H         1 <0>         0.1297
     22 H6          7.6302    0.4437   -4.0494 H         1 <0>         0.1302
     23 H7          5.5220    0.5022   -4.9719 H         1 <0>         0.0660
     24 H8          4.3252    1.4393   -4.0147 H         1 <0>         0.0682
     25 H9          4.2679   -0.3560   -4.0141 H         1 <0>         0.0706
     26 H10         3.8721   -0.3506    0.4829 H         1 <0>         0.1134
     27 H11         3.9308    1.4447    0.4909 H         1 <0>         0.0948
     28 H12        -1.0326    3.2059    0.0246 H         1 <0>         0.4446
     29 H13        -2.1416    1.6567    0.0218 H         1 <0>         0.4644
@<TRIPOS>BOND
     1    1    2 1
     2    1   17 1
     3    1   18 1
     4    1   19 1
     5    2    7 ar
     6    2    3 ar
     7    3    4 ar
     8    3   20 1
     9    4    5 ar
    10    4   21 1
    11    5    6 ar
    12    5    9 1
    13    6    7 ar
    14    6    8 1
    15    7   22 1
    16    8   23 1
    17    8   24 1
    18    8   25 1
    19    9   10 1
    20   10   11 1
    21   10   26 1
    22   10   27 1
    23   11   15 1
    24   11   12 2
    25   12   13 1
    26   13   14 2
    27   14   15 1
    28   14   16 1
    29   16   28 1
    30   16   29 1
