@<TRIPOS>MOLECULE
ZINC66119245
   50    51     0     0     0
SMALL
USER_CHARGES

@<TRIPOS>ATOM
      1 C1         -0.0074    1.5343    0.0115 C.3       1 <0>        -0.1469
      2 C2          0.0077    0.0044    0.0007 C.3       1 <0>        -0.1003
      3 H1          0.5181   -0.3475   -0.8959 H         1 <0>         0.0867
      4 C3         -1.4296   -0.5198    0.0083 C.3       1 <0>        -0.1144
      5 C4         -1.4145   -2.0497   -0.0026 C.3       1 <0>        -0.1218
      6 C5         -0.6785   -2.5613    1.2374 C.3       1 <0>        -0.1167
      7 C6          0.7589   -2.0370    1.2297 C.3       1 <0>        -0.1323
      8 C7          0.7438   -0.5071    1.2406 C.3       1 <0>         0.1699
      9 H2          1.7678   -0.1336    1.2351 H         1 <0>         0.0868
     10 N1          0.0578   -0.0341    2.4455 N.am      1 <0>        -0.7364
     11 C8          0.7380    0.0932    3.6021 C.2       1 <0>         0.7084
     12 O1          1.8965   -0.2695    3.6691 O.2       1 <0>        -0.5896
     13 N2          0.1338    0.6224    4.6844 N.am      1 <0>        -0.6293
     14 C9         -1.2973    0.9537    4.6558 C.3       1 <0>         0.1115
     15 C10        -1.9856    0.2696    5.8411 C.3       1 <0>        -0.1351
     16 C11        -1.2745    0.6659    7.1370 C.3       1 <0>        -0.1145
     17 C12         0.1810    0.1958    7.0865 C.3       1 <0>        -0.1031
     18 H3          0.2096   -0.8852    6.9491 H         1 <0>         0.0761
     19 C13         0.8925    0.8734    5.9173 C.3       1 <0>         0.1314
     20 C14         0.8819    0.5628    8.3961 C.3       1 <0>        -0.0963
     21 C15         2.2983   -0.0159    8.3961 C.3       1 <0>        -0.1465
     22 C16         2.9886    0.3456    9.6859 C.2       1 <0>         0.5154
     23 O2          2.4052    1.0015   10.5228 O.2       1 <0>        -0.5446
     24 N3          4.2543   -0.0600    9.9095 N.am      1 <0>        -0.8587
     25 H4          1.0166    1.9078    0.0061 H         1 <0>         0.0567
     26 H5         -0.5318    1.8988   -0.8719 H         1 <0>         0.0575
     27 H6         -0.5178    1.8863    0.9080 H         1 <0>         0.0533
     28 H7         -1.9400   -0.1679    0.9048 H         1 <0>         0.0565
     29 H8         -1.9540   -0.1554   -0.8751 H         1 <0>         0.0671
     30 H9         -2.4385   -2.4232    0.0029 H         1 <0>         0.0622
     31 H10        -0.9042   -2.4017   -0.8991 H         1 <0>         0.0643
     32 H11        -1.1889   -2.2093    2.1339 H         1 <0>         0.0586
     33 H12        -0.6677   -3.6512    1.2296 H         1 <0>         0.0610
     34 H13         1.2832   -2.4015    2.1131 H         1 <0>         0.0697
     35 H14         1.2692   -2.3890    0.3332 H         1 <0>         0.0706
     36 H15        -0.8859    0.1876    2.4109 H         1 <0>         0.3932
     37 H16        -1.4240    2.0336    4.7332 H         1 <0>         0.0705
     38 H17        -1.7361    0.5982    3.7235 H         1 <0>         0.0732
     39 H18        -3.0282    0.5841    5.8874 H         1 <0>         0.0771
     40 H19        -1.9366   -0.8121    5.7154 H         1 <0>         0.0673
     41 H20        -1.3023    1.7498    7.2496 H         1 <0>         0.0671
     42 H21        -1.7774    0.2000    7.9843 H         1 <0>         0.0689
     43 H22         1.8981    0.4649    5.8172 H         1 <0>         0.0946
     44 H23         0.9484    1.9466    6.1000 H         1 <0>         0.0653
     45 H24         0.9326    1.6476    8.4894 H         1 <0>         0.0737
     46 H25         0.3215    0.1516    9.2357 H         1 <0>         0.0755
     47 H26         2.2476   -1.1007    8.3027 H         1 <0>         0.0955
     48 H27         2.8587    0.3952    7.5564 H         1 <0>         0.0972
     49 H28         4.7209   -0.5845    9.2401 H         1 <0>         0.4025
     50 H29         4.6987    0.1727   10.7397 H         1 <0>         0.4011
@<TRIPOS>BOND
     1    1    2 1
     2    1   25 1
     3    1   26 1
     4    1   27 1
     5    2    3 1
     6    2    8 1
     7    2    4 1
     8    4    5 1
     9    4   28 1
    10    4   29 1
    11    5    6 1
    12    5   30 1
    13    5   31 1
    14    6    7 1
    15    6   32 1
    16    6   33 1
    17    7    8 1
    18    7   34 1
    19    7   35 1
    20    8    9 1
    21    8   10 1
    22   10   11 am
    23   10   36 1
    24   11   12 2
    25   11   13 am
    26   13   19 1
    27   13   14 1
    28   14   15 1
    29   14   37 1
    30   14   38 1
    31   15   16 1
    32   15   39 1
    33   15   40 1
    34   16   17 1
    35   16   41 1
    36   16   42 1
    37   17   18 1
    38   17   19 1
    39   17   20 1
    40   19   43 1
    41   19   44 1
    42   20   21 1
    43   20   45 1
    44   20   46 1
    45   21   22 1
    46   21   47 1
    47   21   48 1
    48   22   23 2
    49   22   24 am
    50   24   49 1
    51   24   50 1
