@<TRIPOS>MOLECULE
ZINC02387171
   35    38     0     0     0
SMALL
USER_CHARGES

@<TRIPOS>ATOM
      1 H1          0.0021   -0.0041    0.0020 H         1 <0>         0.1403
      2 C1         -0.0126    1.0758    0.0080 C.ar      1 <0>        -0.1807
      3 C2         -1.2173    1.7498    0.0288 C.ar      1 <0>        -0.0441
      4 C3         -1.2362    3.1382    0.0360 C.ar      1 <0>         0.0164
      5 C4         -0.0434    3.8490    0.0226 C.ar      1 <0>        -0.0584
      6 C5          1.1615    3.1754    0.0021 C.ar      1 <0>        -0.1647
      7 C6          1.1806    1.7866    0.0004 C.ar      1 <0>         0.2625
      8 N1          2.4016    1.1037   -0.0149 N.pl3     1 <0>        -0.6051
      9 O1          3.6181    1.8284   -0.0226 O.3       1 <0>        -0.3246
     10 H2          2.0892    3.7282   -0.0083 H         1 <0>         0.1425
     11 H3         -0.0582    4.9289    0.0277 H         1 <0>         0.1302
     12 N2         -2.4597    3.8225    0.0562 N.pl3     1 <0>        -0.4140
     13 C7         -3.4016    3.7902   -0.9579 C.ar      1 <0>         0.1659
     14 C8         -3.4309    3.1391   -2.1876 C.ar      1 <0>        -0.1311
     15 C9         -4.5187    3.2854   -3.0205 C.ar      1 <0>        -0.0472
     16 C10        -5.5922    4.0792   -2.6454 C.ar      1 <0>        -0.1314
     17 C11        -5.5822    4.7323   -1.4324 C.ar      1 <0>        -0.0408
     18 C12        -4.4891    4.5935   -0.5794 C.ar      1 <0>        -0.1280
     19 C13        -4.1641    5.1355    0.7491 C.ar      1 <0>         0.0036
     20 C14        -2.9016    4.6219    1.0947 C.ar      1 <0>         0.1219
     21 C15        -2.3547    4.9783    2.3213 C.ar      1 <0>         0.1191
     22 N3         -3.0094    5.7762    3.1397 N.ar      1 <0>        -0.4202
     23 C16        -4.1981    6.2728    2.8464 C.ar      1 <0>         0.0726
     24 C17        -4.8138    5.9808    1.6472 C.ar      1 <0>        -0.0649
     25 H4         -2.1451    1.1971    0.0392 H         1 <0>         0.1357
     26 H5          2.4149    0.1338   -0.0201 H         1 <0>         0.4200
     27 H6          4.4081    1.2708   -0.0330 H         1 <0>         0.4005
     28 H7         -2.5999    2.5189   -2.4896 H         1 <0>         0.1386
     29 H8         -4.5353    2.7779   -3.9737 H         1 <0>         0.1462
     30 H9         -6.4393    4.1860   -3.3069 H         1 <0>         0.1444
     31 H10        -6.4194    5.3503   -1.1434 H         1 <0>         0.1409
     32 H11        -1.3849    4.5976    2.6062 H         1 <0>         0.2045
     33 H12        -4.6920    6.9227    3.5534 H         1 <0>         0.2104
     34 H13        -5.7862    6.3890    1.4141 H         1 <0>         0.1846
     35 H14        -2.6036    6.0077    3.9898 H         1 <0>         0.4542
@<TRIPOS>BOND
     1    1    2 1
     2    2    7 ar
     3    2    3 ar
     4    3    4 ar
     5    3   25 1
     6    4    5 ar
     7    4   12 1
     8    5    6 ar
     9    5   11 1
    10    6    7 ar
    11    6   10 1
    12    7    8 1
    13    8    9 1
    14    8   26 1
    15    9   27 1
    16   12   20 1
    17   12   13 1
    18   13   18 ar
    19   13   14 ar
    20   14   15 ar
    21   14   28 1
    22   15   16 ar
    23   15   29 1
    24   16   17 ar
    25   16   30 1
    26   17   18 ar
    27   17   31 1
    28   18   19 1
    29   19   24 ar
    30   19   20 ar
    31   20   21 ar
    32   21   22 ar
    33   21   32 1
    34   22   23 ar
    35   22   35 1
    36   23   24 ar
    37   23   33 1
    38   24   34 1
