@<TRIPOS>MOLECULE
ZINC24928389
   50    52     0     0     0
SMALL
USER_CHARGES
(3R)-N-(2,5-dimethylphenyl)-1-[(5-methyl-2-thienyl)sulfonyl]piperidine-3-carboxamide
@<TRIPOS>ATOM
      1 C1          2.8920    4.6369   -1.4983 C.3       1 <0>        -0.1171
      2 C2          2.6863    3.3495   -0.7424 C.ar      1 <0>        -0.0725
      3 C3          3.7464    2.7634   -0.0750 C.ar      1 <0>        -0.1315
      4 C4          3.5618    1.5823    0.6197 C.ar      1 <0>        -0.1002
      5 C5          2.3173    0.9837    0.6488 C.ar      1 <0>        -0.1195
      6 C6          1.2509    1.5696   -0.0202 C.ar      1 <0>         0.1503
      7 C7          1.4409    2.7534   -0.7215 C.ar      1 <0>        -0.1200
      8 N1         -0.0111    0.9658    0.0074 N.am      1 <0>        -0.6825
      9 C8         -1.1227    1.7279    0.0164 C.2       1 <0>         0.5210
     10 O1         -1.0320    2.9338   -0.0763 O.2       1 <0>        -0.5167
     11 C9         -2.4783    1.0816    0.1415 C.3       1 <0>        -0.1216
     12 H1         -2.5151    0.5277    1.0912 H         1 <0>         0.1056
     13 C10        -2.6973    0.1229   -1.0311 C.3       1 <0>        -0.1099
     14 C11        -4.0601   -0.5586   -0.8874 C.3       1 <0>        -0.1352
     15 C12        -5.1635    0.5036   -0.9187 C.3       1 <0>         0.1124
     16 N2         -4.8804    1.5103    0.1134 N.pl3     1 <0>        -0.9916
     17 C13        -3.5638    2.1624    0.1218 C.3       1 <0>         0.1374
     18 S1         -6.0232    1.9020    1.2460 S.o2      1 <0>         2.7229
     19 O2         -5.7093    3.2099    1.7042 O.2       1 <0>        -0.9423
     20 O3         -7.2849    1.5756    0.6795 O.2       1 <0>        -0.9443
     21 C14        -5.7911    0.8190    2.6164 C.2       1 <0>        -0.7714
     22 C15        -5.0084    0.9828    3.7108 C.2       1 <0>         0.0014
     23 C16        -4.9852   -0.0094    4.6729 C.2       1 <0>        -0.2023
     24 C17        -5.7376   -1.1216    4.4884 C.2       1 <0>        -0.0958
     25 S2         -6.5199   -0.7822    2.9200 S.3       1 <0>         0.1604
     26 C18        -5.8779   -2.3307    5.3769 C.3       1 <0>        -0.0853
     27 C19         2.1172   -0.3041    1.4054 C.3       1 <0>        -0.1123
     28 H2          3.9401    4.9561   -1.4004 H         1 <0>         0.0662
     29 H3          2.2319    5.4140   -1.0854 H         1 <0>         0.0718
     30 H4          2.6541    4.4803   -2.5608 H         1 <0>         0.0698
     31 H5          4.7206    3.2291   -0.0968 H         1 <0>         0.1225
     32 H6          4.3916    1.1271    1.1398 H         1 <0>         0.1250
     33 H7          0.6145    3.2090   -1.2468 H         1 <0>         0.1386
     34 H8         -0.0959   -0.1308    0.0218 H         1 <0>         0.4312
     35 H9         -2.6674    0.6860   -1.9756 H         1 <0>         0.0771
     36 H10        -1.9049   -0.6401   -1.0339 H         1 <0>         0.0720
     37 H11        -4.2059   -1.2654   -1.7175 H         1 <0>         0.0861
     38 H12        -4.0993   -1.1021    0.0681 H         1 <0>         0.0721
     39 H13        -5.1848    0.9811   -1.9094 H         1 <0>         0.0828
     40 H14        -6.1355    0.0286   -0.7197 H         1 <0>         0.0965
     41 H15        -3.4670    2.7956    1.0160 H         1 <0>         0.1010
     42 H16        -3.4485    2.7815   -0.7801 H         1 <0>         0.0920
     43 H17        -4.4140    1.8765    3.8307 H         1 <0>         0.1458
     44 H18        -4.3731    0.0979    5.5562 H         1 <0>         0.1439
     45 H19        -6.5749   -3.0458    4.9156 H         1 <0>         0.0803
     46 H20        -6.2663   -2.0213    6.3585 H         1 <0>         0.0919
     47 H21        -4.8949   -2.8075    5.5052 H         1 <0>         0.0916
     48 H22         1.0688   -0.6241    1.3137 H         1 <0>         0.0583
     49 H23         2.3613   -0.1477    2.4665 H         1 <0>         0.0722
     50 H24         2.7754   -1.0805    0.9883 H         1 <0>         0.0718
@<TRIPOS>BOND
     1    1    2 1
     2    1   28 1
     3    1   29 1
     4    1   30 1
     5    2    7 ar
     6    2    3 ar
     7    3    4 ar
     8    3   31 1
     9    4    5 ar
    10    4   32 1
    11    5    6 ar
    12    5   27 1
    13    6    7 ar
    14    6    8 1
    15    7   33 1
    16    8    9 am
    17    8   34 1
    18    9   10 2
    19    9   11 1
    20   11   12 1
    21   11   17 1
    22   11   13 1
    23   13   14 1
    24   13   35 1
    25   13   36 1
    26   14   15 1
    27   14   37 1
    28   14   38 1
    29   15   16 1
    30   15   39 1
    31   15   40 1
    32   16   17 1
    33   16   18 1
    34   17   41 1
    35   17   42 1
    36   18   19 2
    37   18   20 2
    38   18   21 1
    39   21   25 1
    40   21   22 2
    41   22   23 1
    42   22   43 1
    43   23   24 2
    44   23   44 1
    45   24   25 1
    46   24   26 1
    47   26   45 1
    48   26   46 1
    49   26   47 1
    50   27   48 1
    51   27   49 1
    52   27   50 1
