@<TRIPOS>MOLECULE
ZINC42141281
   33    34     0     0     0
SMALL
USER_CHARGES

@<TRIPOS>ATOM
      1 C1         -0.0178    1.4608    0.0101 C.3       1 <0>         0.1023
      2 N1          0.0021   -0.0041    0.0020 N.pl3     1 <0>        -0.6767
      3 C2          0.0241   -0.7433    1.2666 C.3       1 <0>         0.1757
      4 C3         -1.3889   -1.0161    1.7137 C.ar      1 <0>        -0.1382
      5 C4         -1.9726   -0.2155    2.6792 C.ar      1 <0>        -0.0714
      6 C5         -3.2657   -0.4589    3.0930 C.ar      1 <0>        -0.0769
      7 C6         -3.9874   -1.5166    2.5356 C.ar      1 <0>         0.0229
      8 C7         -3.3945   -2.3218    1.5617 C.ar      1 <0>        -0.1127
      9 C8         -2.1000   -2.0642    1.1519 C.ar      1 <0>         0.1109
     10 F1         -1.5255   -2.8384    0.2055 F         1 <0>        -0.1340
     11 C9         -5.3301   -1.7743    2.9617 C.1       1 <0>         0.2326
     12 N2         -6.3952   -1.9787    3.2997 N.1       1 <0>        -0.3766
     13 C10        -0.0000   -0.6950   -1.2098 C.ar      1 <0>         0.2210
     14 C11         1.1937   -1.0378   -1.8391 C.ar      1 <0>        -0.0964
     15 C12         1.1499   -1.7220   -3.0373 C.ar      1 <0>         0.0880
     16 N3         -0.0023   -2.0524   -3.5887 N.ar      1 <0>        -0.4045
     17 C13        -1.1580   -1.7477   -3.0281 C.ar      1 <0>         0.0321
     18 C14        -1.2024   -1.0673   -1.8227 C.ar      1 <0>         0.2131
     19 N4         -2.4310   -0.7519   -1.2287 N.pl3     1 <0>        -0.8311
     20 H1          1.0048    1.8381    0.0023 H         1 <0>         0.0582
     21 H2         -0.5450    1.8219   -0.8730 H         1 <0>         0.0618
     22 H3         -0.5280    1.8123    0.9069 H         1 <0>         0.0772
     23 H4          0.5496   -1.6879    1.1262 H         1 <0>         0.0890
     24 H5          0.5371   -0.1514    2.0246 H         1 <0>         0.1061
     25 H6         -1.4141    0.6022    3.1104 H         1 <0>         0.1505
     26 H7         -3.7192    0.1672    3.8471 H         1 <0>         0.1485
     27 H8         -3.9472   -3.1414    1.1267 H         1 <0>         0.1490
     28 H9          2.1418   -0.7715   -1.3957 H         1 <0>         0.1836
     29 H10         2.0723   -1.9906   -3.5307 H         1 <0>         0.2072
     30 H11        -2.0791   -2.0363   -3.5126 H         1 <0>         0.2012
     31 H12        -2.4533   -0.2719   -0.3861 H         1 <0>         0.4196
     32 H13        -3.2595   -1.0135   -1.6599 H         1 <0>         0.4159
     33 H14        -0.0002   -2.5331   -4.4313 H         1 <0>         0.4520
@<TRIPOS>BOND
     1    1    2 1
     2    1   20 1
     3    1   21 1
     4    1   22 1
     5    2    3 1
     6    2   13 1
     7    3    4 1
     8    3   23 1
     9    3   24 1
    10    4    9 ar
    11    4    5 ar
    12    5    6 ar
    13    5   25 1
    14    6    7 ar
    15    6   26 1
    16    7    8 ar
    17    7   11 1
    18    8    9 ar
    19    8   27 1
    20    9   10 1
    21   11   12 3
    22   13   18 ar
    23   13   14 ar
    24   14   15 ar
    25   14   28 1
    26   15   16 ar
    27   15   29 1
    28   16   17 ar
    29   16   33 1
    30   17   18 ar
    31   17   30 1
    32   18   19 1
    33   19   31 1
    34   19   32 1
