@<TRIPOS>MOLECULE
ZINC62180167
   40    42     0     0     0
SMALL
USER_CHARGES

@<TRIPOS>ATOM
      1 C1         -0.3822    1.7091   -0.1857 C.3       1 <0>        -0.1461
      2 C2         -0.1125    0.2054   -0.1030 C.3       1 <0>         0.1309
      3 C3         -1.4256   -0.5410    0.1655 C.3       1 <0>         0.0625
      4 H1         -2.1555   -0.2889   -0.6038 H         1 <0>         0.0764
      5 C4         -1.1394   -2.0444    0.1323 C.3       1 <0>         0.1476
      6 H2         -2.0012   -2.5863    0.5219 H         1 <0>         0.0807
      7 C5          0.0700   -2.3498    0.9791 C.ar      1 <0>        -0.1929
      8 C6          0.2820   -3.6551    1.3920 C.ar      1 <0>        -0.0755
      9 C7          1.3815   -3.9724    2.1650 C.ar      1 <0>        -0.1469
     10 C8          2.2776   -2.9847    2.5307 C.ar      1 <0>        -0.0689
     11 C9          2.0708   -1.6816    2.1240 C.ar      1 <0>        -0.0751
     12 C10         0.9621   -1.3584    1.3460 C.ar      1 <0>         0.1856
     13 O1          0.7868   -0.0636    0.9734 O.3       1 <0>        -0.2792
     14 Cl1         3.1966   -0.4426    2.5835 Cl        1 <0>        -0.0544
     15 O2         -0.8909   -2.4515   -1.2147 O.3       1 <0>        -0.5484
     16 N1         -1.9479   -0.1647    1.4859 N.3       1 <0>        -0.5155
     17 C11        -2.7474   -1.2535    2.0662 C.3       1 <0>         0.0085
     18 C12        -3.2210   -0.8432    3.4630 C.3       1 <0>         0.0654
     19 O3         -3.9572    0.3795    3.3713 O.3       1 <0>        -0.3840
     20 C13        -3.2086    1.4616    2.8110 C.3       1 <0>         0.0642
     21 C14        -2.7349    1.0746    1.4075 C.3       1 <0>         0.0008
     22 C15         0.4981   -0.2816   -1.4186 C.3       1 <0>        -0.1762
     23 H3          0.4816    2.2097   -0.6231 H         1 <0>         0.0702
     24 H4         -1.2591    1.8873   -0.8081 H         1 <0>         0.0757
     25 H5         -0.5613    2.1017    0.8153 H         1 <0>         0.0803
     26 H6         -0.4160   -4.4286    1.1076 H         1 <0>         0.1278
     27 H7          1.5413   -4.9917    2.4842 H         1 <0>         0.1344
     28 H8          3.1384   -3.2323    3.1341 H         1 <0>         0.1393
     29 H9         -0.7016   -3.3947   -1.3120 H         1 <0>         0.3817
     30 H10        -3.6118   -1.4485    1.4315 H         1 <0>         0.0458
     31 H11        -2.1376   -2.1541    2.1385 H         1 <0>         0.0914
     32 H12        -3.8613   -1.6237    3.8741 H         1 <0>         0.0991
     33 H13        -2.3575   -0.7002    4.1127 H         1 <0>         0.0610
     34 H14        -3.8400    2.3481    2.7505 H         1 <0>         0.1002
     35 H15        -2.3448    1.6716    3.4417 H         1 <0>         0.0618
     36 H16        -2.1160    1.8735    0.9991 H         1 <0>         0.1046
     37 H17        -3.5991    0.9168    0.7623 H         1 <0>         0.0453
     38 H18         1.4353    0.2442   -1.6008 H         1 <0>         0.0621
     39 H19         0.6888   -1.3530   -1.3561 H         1 <0>         0.0876
     40 H20        -0.1948   -0.0830   -2.2363 H         1 <0>         0.0721
@<TRIPOS>BOND
     1    1    2 1
     2    1   23 1
     3    1   24 1
     4    1   25 1
     5    2   13 1
     6    2    3 1
     7    2   22 1
     8    3    4 1
     9    3    5 1
    10    3   16 1
    11    5    6 1
    12    5    7 1
    13    5   15 1
    14    7   12 ar
    15    7    8 ar
    16    8    9 ar
    17    8   26 1
    18    9   10 ar
    19    9   27 1
    20   10   11 ar
    21   10   28 1
    22   11   12 ar
    23   11   14 1
    24   12   13 1
    25   15   29 1
    26   16   21 1
    27   16   17 1
    28   17   18 1
    29   17   30 1
    30   17   31 1
    31   18   19 1
    32   18   32 1
    33   18   33 1
    34   19   20 1
    35   20   21 1
    36   20   34 1
    37   20   35 1
    38   21   36 1
    39   21   37 1
    40   22   38 1
    41   22   39 1
    42   22   40 1
