@<TRIPOS>MOLECULE
ZINC67443523
   47    49     0     0     0
SMALL
USER_CHARGES

@<TRIPOS>ATOM
      1 C1         -0.0647    1.5019    0.0154 C.3       1 <0>        -0.1165
      2 C2         -0.0313   -0.0047    0.0057 C.ar      1 <0>        -0.0689
      3 C3         -0.6218   -0.7010   -1.0331 C.ar      1 <0>        -0.1077
      4 C4         -0.5933   -2.0818   -1.0465 C.ar      1 <0>        -0.0982
      5 C5          0.0293   -2.7724   -0.0150 C.ar      1 <0>         0.1039
      6 C6          0.6226   -2.0699    1.0289 C.ar      1 <0>         0.0794
      7 C7          0.5945   -0.6872    1.0326 C.ar      1 <0>        -0.1337
      8 F1          1.2292   -2.7371    2.0350 F         1 <0>        -0.1345
      9 N1          0.0595   -4.1703   -0.0254 N.am      1 <0>        -0.6375
     10 C8         -0.0391   -4.8378   -1.1921 C.2       1 <0>         0.5106
     11 O1         -0.0528   -4.2274   -2.2412 O.2       1 <0>        -0.4942
     12 C9         -0.1313   -6.3284   -1.1942 C.2       1 <0>         0.5122
     13 O2         -0.1176   -6.9386   -0.1452 O.2       1 <0>        -0.5096
     14 N2         -0.2299   -6.9958   -2.3609 N.am      1 <0>        -0.6935
     15 C10        -0.3204   -8.4580   -2.3629 C.3       1 <0>         0.1563
     16 C11        -0.4207   -8.9532   -3.7827 C.ar      1 <0>        -0.0890
     17 C12        -1.6626   -9.1001   -4.3747 C.ar      1 <0>        -0.1027
     18 C13        -1.7614   -9.5529   -5.6741 C.ar      1 <0>        -0.0583
     19 C14        -0.6051   -9.8631   -6.3916 C.ar      1 <0>        -0.1234
     20 C15         0.6446   -9.7126   -5.7885 C.ar      1 <0>        -0.0875
     21 C16         0.7297   -9.2535   -4.4903 C.ar      1 <0>        -0.1034
     22 C17        -0.7035  -10.3493   -7.7844 C.2       1 <0>         0.5618
     23 O3         -1.7932  -10.4798   -8.3070 O.2       1 <0>        -0.5291
     24 N3          0.4149  -10.6479   -8.4745 N.am      1 <0>        -0.6982
     25 C18         0.3174  -11.1297   -9.8546 C.3       1 <0>         0.0760
     26 C19         1.2060  -12.3089  -10.2557 C.3       1 <0>        -0.1913
     27 C20         1.5230  -10.9028  -10.7690 C.3       1 <0>        -0.1874
     28 H1          0.8112    1.8881   -0.5058 H         1 <0>         0.0761
     29 H2         -0.9682    1.8485   -0.4863 H         1 <0>         0.0724
     30 H3         -0.0614    1.8588    1.0453 H         1 <0>         0.0706
     31 H4         -1.1063   -0.1641   -1.8352 H         1 <0>         0.1363
     32 H5         -1.0551   -2.6241   -1.8583 H         1 <0>         0.1554
     33 H6          1.0584   -0.1401    1.8400 H         1 <0>         0.1423
     34 H7          0.1513   -4.6597    0.8070 H         1 <0>         0.4270
     35 H8         -0.2409   -6.5081   -3.1993 H         1 <0>         0.4164
     36 H9          0.5694   -8.8778   -1.8937 H         1 <0>         0.0890
     37 H10        -1.2050   -8.7681   -1.8066 H         1 <0>         0.0895
     38 H11        -2.5566   -8.8602   -3.8183 H         1 <0>         0.1355
     39 H12        -2.7314   -9.6676   -6.1350 H         1 <0>         0.1417
     40 H13         1.5431   -9.9509   -6.3382 H         1 <0>         0.1289
     41 H14         1.6962   -9.1324   -4.0238 H         1 <0>         0.1340
     42 H15         1.2845  -10.5438   -8.0575 H         1 <0>         0.4016
     43 H16        -0.6737  -11.0701  -10.3044 H         1 <0>         0.1404
     44 H17         1.8632  -12.7261   -9.4927 H         1 <0>         0.0978
     45 H18         0.7995  -13.0254  -10.9694 H         1 <0>         0.1050
     46 H19         1.3250  -10.6943  -11.8204 H         1 <0>         0.1063
     47 H20         2.3887  -10.3951  -10.3437 H         1 <0>         0.0981
@<TRIPOS>BOND
     1    1    2 1
     2    1   28 1
     3    1   29 1
     4    1   30 1
     5    2    7 ar
     6    2    3 ar
     7    3    4 ar
     8    3   31 1
     9    4    5 ar
    10    4   32 1
    11    5    6 ar
    12    5    9 1
    13    6    7 ar
    14    6    8 1
    15    7   33 1
    16    9   10 am
    17    9   34 1
    18   10   11 2
    19   10   12 1
    20   12   13 2
    21   12   14 am
    22   14   15 1
    23   14   35 1
    24   15   16 1
    25   15   36 1
    26   15   37 1
    27   16   21 ar
    28   16   17 ar
    29   17   18 ar
    30   17   38 1
    31   18   19 ar
    32   18   39 1
    33   19   20 ar
    34   19   22 1
    35   20   21 ar
    36   20   40 1
    37   21   41 1
    38   22   23 2
    39   22   24 am
    40   24   25 1
    41   24   42 1
    42   25   27 1
    43   25   26 1
    44   25   43 1
    45   26   27 1
    46   26   44 1
    47   26   45 1
    48   27   46 1
    49   27   47 1
