@<TRIPOS>MOLECULE
ZINC33742184
   49    52     0     0     0
SMALL
USER_CHARGES
2-[(3R)-2-(2,3-dichlorophenyl)-5-hydroxy-3-phenyl-3H-pyridazin-6-yl]-2-oxo-N-phenyl-acetamide
@<TRIPOS>ATOM
      1 C1          1.2685   -0.5692   -0.0932 C.ar      1 <0>        -0.1090
      2 C2          0.0648    0.0646   -0.3386 C.ar      1 <0>        -0.1180
      3 C3         -0.0106    1.4443   -0.2990 C.ar      1 <0>        -0.0992
      4 C4          1.1178    2.1902   -0.0141 C.ar      1 <0>        -0.1016
      5 C5          2.3219    1.5565    0.2299 C.ar      1 <0>        -0.0898
      6 C6          2.3971    0.1768    0.1908 C.ar      1 <0>        -0.1156
      7 C7          1.0358    3.6944    0.0286 C.3       1 <0>         0.2019
      8 H1          0.1058    4.1311   -0.3643 H         1 <0>         0.0953
      9 C8          1.1029    4.1202    1.4807 C.2       1 <0>        -0.2584
     10 C9          2.0914    4.9557    1.8266 C.2       1 <0>         0.1718
     11 C10         3.0449    5.4092    0.7952 C.2       1 <0>        -0.1085
     12 N1          2.9612    5.0232   -0.4545 N.2       1 <0>        -0.0645
     13 N2          2.0532    4.2251   -0.8880 N.pl3     1 <0>        -0.3513
     14 C11         2.0337    3.8616   -2.2336 C.ar      1 <0>         0.1732
     15 C12         0.8847    4.0574   -2.9919 C.ar      1 <0>        -0.1000
     16 C13         0.8685    3.6963   -4.3243 C.ar      1 <0>        -0.0863
     17 C14         1.9932    3.1400   -4.9066 C.ar      1 <0>        -0.0921
     18 C15         3.1395    2.9429   -4.1566 C.ar      1 <0>        -0.0216
     19 C16         3.1655    3.3074   -2.8227 C.ar      1 <0>        -0.0167
     20 Cl1         4.6055    3.0669   -1.8834 Cl        1 <0>        -0.0218
     21 Cl2         4.5481    2.2444   -4.8926 Cl        1 <0>        -0.0354
     22 C17         4.1207    6.3218    1.1813 C.2       1 <0>         0.4435
     23 O1          4.2781    6.6160    2.3508 O.2       1 <0>        -0.4412
     24 C18         5.0233    6.8905    0.1426 C.2       1 <0>         0.4822
     25 O2          4.8661    6.5966   -1.0252 O.2       1 <0>        -0.4512
     26 N3          6.0146    7.7314    0.4983 N.am      1 <0>        -0.6650
     27 C19         6.7917    8.3508   -0.4841 C.ar      1 <0>         0.1475
     28 C20         8.1245    8.6505   -0.2312 C.ar      1 <0>        -0.1434
     29 C21         8.8906    9.2591   -1.2058 C.ar      1 <0>        -0.0997
     30 C22         8.3300    9.5786   -2.4290 C.ar      1 <0>        -0.1337
     31 C23         7.0024    9.2860   -2.6824 C.ar      1 <0>        -0.0989
     32 C24         6.2317    8.6735   -1.7139 C.ar      1 <0>        -0.1227
     33 O3          2.2143    5.3810    3.1111 O.3       1 <0>        -0.5091
     34 H2          1.3273   -1.6472   -0.1238 H         1 <0>         0.1244
     35 H3         -0.8169   -0.5182   -0.5608 H         1 <0>         0.1259
     36 H4         -0.9500    1.9396   -0.4951 H         1 <0>         0.1250
     37 H5          3.2036    2.1393    0.4521 H         1 <0>         0.1126
     38 H6          3.3376   -0.3184    0.3825 H         1 <0>         0.1232
     39 H7          0.3848    3.7740    2.2387 H         1 <0>         0.1627
     40 H8          0.0058    4.4918   -2.5390 H         1 <0>         0.1449
     41 H9         -0.0241    3.8481   -4.9130 H         1 <0>         0.1507
     42 H10         1.9766    2.8585   -5.9491 H         1 <0>         0.1501
     43 H11         6.2120    7.9302    1.5620 H         1 <0>         0.4452
     44 H12         8.5618    8.4047    0.7252 H         1 <0>         0.1267
     45 H13         9.9275    9.4897   -1.0110 H         1 <0>         0.1271
     46 H14         8.9304   10.0579   -3.1881 H         1 <0>         0.1240
     47 H15         6.5676    9.5371   -3.6386 H         1 <0>         0.1260
     48 H16         5.1947    8.4459   -1.9121 H         1 <0>         0.1345
     49 H17         3.0284    6.0670    3.3878 H         1 <0>         0.4362
@<TRIPOS>BOND
     1    1    6 ar
     2    1    2 ar
     3    1   34 1
     4    2    3 ar
     5    2   35 1
     6    3    4 ar
     7    3   36 1
     8    4    5 ar
     9    4    7 1
    10    5    6 ar
    11    5   37 1
    12    6   38 1
    13    7    8 1
    14    7   13 1
    15    7    9 1
    16    9   10 2
    17    9   39 1
    18   10   11 1
    19   10   33 1
    20   11   12 2
    21   11   22 1
    22   12   13 1
    23   13   14 1
    24   14   19 ar
    25   14   15 ar
    26   15   16 ar
    27   15   40 1
    28   16   17 ar
    29   16   41 1
    30   17   18 ar
    31   17   42 1
    32   18   19 ar
    33   18   21 1
    34   19   20 1
    35   22   23 2
    36   22   24 1
    37   24   25 2
    38   24   26 am
    39   26   27 1
    40   26   43 1
    41   27   32 ar
    42   27   28 ar
    43   28   29 ar
    44   28   44 1
    45   29   30 ar
    46   29   45 1
    47   30   31 ar
    48   30   46 1
    49   31   32 ar
    50   31   47 1
    51   32   48 1
    52   33   49 1
