@<TRIPOS>MOLECULE
ZINC38754028
   49    52     0     0     0
SMALL
USER_CHARGES

@<TRIPOS>ATOM
      1 C1         -0.0454    1.5564    0.0062 C.3       1 <0>        -0.1705
      2 C2         -0.0091    0.0268    0.0027 C.3       1 <0>         0.0880
      3 N1         -1.3783   -0.4941    0.0128 N.pl3     1 <0>        -0.4712
      4 C3         -1.9691   -0.7192    1.1946 C.2       1 <0>         0.2610
      5 C4         -3.2544   -1.2083    1.2946 C.2       1 <0>        -0.3461
      6 C5         -4.0025   -1.4925    0.0588 C.2       1 <0>         0.4416
      7 O1         -5.1411   -1.9253    0.0901 O.2       1 <0>        -0.4850
      8 C6         -3.3144   -1.2303   -1.2175 C.ar      1 <0>        -0.2380
      9 C7         -2.0025   -0.7253   -1.1909 C.ar      1 <0>         0.3836
     10 N2         -1.3713   -0.4792   -2.3325 N.ar      1 <0>        -0.5168
     11 C8         -1.9426   -0.6904   -3.4994 C.ar      1 <0>         0.2013
     12 C9         -3.2350   -1.1810   -3.5979 C.ar      1 <0>        -0.2048
     13 C10        -3.9402   -1.4680   -2.4428 C.ar      1 <0>         0.0177
     14 C11        -1.1723   -0.3908   -4.7596 C.3       1 <0>        -0.1118
     15 C12        -3.8668   -1.4422    2.6120 C.2       1 <0>         0.5944
     16 O2         -3.2058   -1.3025    3.6235 O.2       1 <0>        -0.5536
     17 N3         -5.1602   -1.8113    2.6979 N.am      1 <0>        -0.7184
     18 C13        -5.8009   -1.9357    4.0095 C.3       1 <0>         0.1928
     19 C14        -7.2363   -2.3579    3.8294 C.2       1 <0>         0.0904
     20 C15        -7.7185   -3.6732    3.8849 C.2       1 <0>        -0.2467
     21 C16        -9.0629   -3.6375    3.6736 C.2       1 <0>         0.1133
     22 O3         -9.4146   -2.3507    3.4919 O.3       1 <0>        -0.0583
     23 N4         -8.2437   -1.5619    3.6006 N.2       1 <0>        -0.2890
     24 C17        -9.9724   -4.8016    3.6477 C.ar      1 <0>        -0.0907
     25 C18        -9.6601   -5.9178    2.8694 C.ar      1 <0>        -0.0232
     26 C19       -10.5119   -7.0016    2.8491 C.ar      1 <0>        -0.1627
     27 C20       -11.6780   -6.9857    3.5992 C.ar      1 <0>         0.1543
     28 C21       -11.9949   -5.8822    4.3738 C.ar      1 <0>        -0.1929
     29 C22       -11.1463   -4.7921    4.4069 C.ar      1 <0>         0.1667
     30 F1        -11.4530   -3.7178    5.1665 F         1 <0>        -0.1155
     31 F2        -12.5086   -8.0509    3.5740 F         1 <0>        -0.1224
     32 H1          0.9734    1.9440   -0.0014 H         1 <0>         0.0820
     33 H2         -0.5750    1.9093   -0.8787 H         1 <0>         0.0652
     34 H3         -0.5603    1.9055    0.9012 H         1 <0>         0.0624
     35 H4          0.5058   -0.3223   -0.8923 H         1 <0>         0.1105
     36 H5          0.5205   -0.3261    0.8876 H         1 <0>         0.0988
     37 H6         -1.4190   -0.5106    2.1003 H         1 <0>         0.1868
     38 H7         -3.6837   -1.3459   -4.5663 H         1 <0>         0.1493
     39 H8         -4.9486   -1.8520   -2.4874 H         1 <0>         0.1551
     40 H9         -0.6212   -1.2791   -5.0684 H         1 <0>         0.0884
     41 H10        -1.8658   -0.1007   -5.5490 H         1 <0>         0.0847
     42 H11        -0.4729    0.4241   -4.5729 H         1 <0>         0.0832
     43 H12        -5.6669   -1.9945    1.8913 H         1 <0>         0.4171
     44 H13        -5.2738   -2.6836    4.6018 H         1 <0>         0.1006
     45 H14        -5.7665   -0.9750    4.5233 H         1 <0>         0.0929
     46 H15        -7.1272   -4.5592    4.0637 H         1 <0>         0.1680
     47 H16        -8.7528   -5.9321    2.2839 H         1 <0>         0.1544
     48 H17       -10.2704   -7.8651    2.2472 H         1 <0>         0.1546
     49 H18       -12.9045   -5.8753    4.9561 H         1 <0>         0.1589
@<TRIPOS>BOND
     1    1    2 1
     2    1   32 1
     3    1   33 1
     4    1   34 1
     5    2    3 1
     6    2   35 1
     7    2   36 1
     8    3    9 1
     9    3    4 1
    10    4    5 2
    11    4   37 1
    12    5    6 1
    13    5   15 1
    14    6    7 2
    15    6    8 1
    16    8   13 ar
    17    8    9 ar
    18    9   10 ar
    19   10   11 ar
    20   11   12 ar
    21   11   14 1
    22   12   13 ar
    23   12   38 1
    24   13   39 1
    25   14   40 1
    26   14   41 1
    27   14   42 1
    28   15   16 2
    29   15   17 am
    30   17   18 1
    31   17   43 1
    32   18   19 1
    33   18   44 1
    34   18   45 1
    35   19   23 2
    36   19   20 1
    37   20   21 2
    38   20   46 1
    39   21   22 1
    40   21   24 1
    41   22   23 1
    42   24   29 ar
    43   24   25 ar
    44   25   26 ar
    45   25   47 1
    46   26   27 ar
    47   26   48 1
    48   27   28 ar
    49   27   31 1
    50   28   29 ar
    51   28   49 1
    52   29   30 1
