@<TRIPOS>MOLECULE
ZINC67272562
   37    39     0     0     0
SMALL
USER_CHARGES

@<TRIPOS>ATOM
      1 C1         -0.0538    1.4194   -0.7460 C.3       1 <0>        -0.1137
      2 C2         -0.0297   -0.0743   -0.5474 C.ar      1 <0>        -0.1077
      3 C3         -0.0211   -0.9161   -1.6446 C.ar      1 <0>        -0.0971
      4 C4          0.0015   -2.2853   -1.4661 C.ar      1 <0>        -0.1535
      5 C5          0.0155   -2.8167   -0.1829 C.ar      1 <0>         0.1430
      6 C6          0.0068   -1.9685    0.9169 C.ar      1 <0>        -0.1591
      7 C7         -0.0104   -0.6000    0.7314 C.ar      1 <0>        -0.0969
      8 N1          0.0379   -4.2027    0.0014 N.am      1 <0>        -0.5468
      9 C8         -0.1148   -5.0971   -1.1488 C.3       1 <0>         0.0584
     10 C9          0.1998   -4.7157    1.2371 C.2       1 <0>         0.6146
     11 O1          0.2139   -3.9781    2.2052 O.2       1 <0>        -0.4914
     12 C10         0.3590   -6.1616    1.4152 C.2       1 <0>        -0.2965
     13 C11         0.6023   -6.8921    2.5720 C.2       1 <0>         0.1685
     14 N2          0.6990   -8.1876    2.4310 N.2       1 <0>        -0.4856
     15 C12         0.5713   -8.7657    1.2483 C.2       1 <0>         0.1122
     16 S1          0.2864   -7.4746    0.2069 S.3       1 <0>         0.2514
     17 C13         0.6526  -10.2046    0.9201 C.2       1 <0>         0.2990
     18 N3          0.8763  -11.1955    1.7963 N.2       1 <0>        -0.5034
     19 H1          0.6189  -12.7815   -0.8398 H         1 <0>         0.4502
     20 C14         0.8857  -12.3429    1.1731 C.2       1 <0>         0.2738
     21 N4          0.6655  -12.1161   -0.1356 N.pl3     1 <0>        -0.4703
     22 N5          0.5117  -10.7277   -0.2803 N.2       1 <0>        -0.2810
     23 C15         0.7471   -6.2263    3.9162 C.3       1 <0>        -0.0904
     24 H2          0.9679    1.7949   -0.8030 H         1 <0>         0.0691
     25 H3         -0.5794    1.6544   -1.6715 H         1 <0>         0.0650
     26 H4         -0.5672    1.8892    0.0929 H         1 <0>         0.0659
     27 H5         -0.0323   -0.5022   -2.6421 H         1 <0>         0.1258
     28 H6          0.0078   -2.9422   -2.3233 H         1 <0>         0.1268
     29 H7          0.0173   -2.3785    1.9160 H         1 <0>         0.1829
     30 H8         -0.0127    0.0602    1.5861 H         1 <0>         0.1259
     31 H9          0.8691   -5.4040   -1.5035 H         1 <0>         0.0799
     32 H10        -0.6847   -5.9774   -0.8514 H         1 <0>         0.0780
     33 H11        -0.6424   -4.5754   -1.9473 H         1 <0>         0.1039
     34 H12         1.0435  -13.3089    1.6296 H         1 <0>         0.2347
     35 H13        -0.2297   -6.1578    4.3949 H         1 <0>         0.0870
     36 H14         1.4182   -6.8142    4.5424 H         1 <0>         0.0810
     37 H15         1.1577   -5.2253    3.7835 H         1 <0>         0.0964
@<TRIPOS>BOND
     1    1    2 1
     2    1   24 1
     3    1   25 1
     4    1   26 1
     5    2    7 ar
     6    2    3 ar
     7    3    4 ar
     8    3   27 1
     9    4    5 ar
    10    4   28 1
    11    5    6 ar
    12    5    8 1
    13    6    7 ar
    14    6   29 1
    15    7   30 1
    16    8    9 1
    17    8   10 am
    18    9   31 1
    19    9   32 1
    20    9   33 1
    21   10   11 2
    22   10   12 1
    23   12   16 1
    24   12   13 2
    25   13   14 1
    26   13   23 1
    27   14   15 2
    28   15   16 1
    29   15   17 1
    30   17   18 1
    31   17   22 2
    32   18   20 2
    33   19   21 1
    34   20   34 1
    35   20   21 1
    36   21   22 1
    37   23   35 1
    38   23   36 1
    39   23   37 1
