@<TRIPOS>MOLECULE
ZINC60290377
   52    56     0     0     0
SMALL
USER_CHARGES

@<TRIPOS>ATOM
      1 C1         -1.7386    1.5144   -0.3510 C.3       1 <0>        -0.0720
      2 C2         -1.5116    0.0282   -0.2467 C.2       1 <0>         0.1195
      3 C3         -0.9117   -0.7844   -1.2320 C.ar      1 <0>        -0.1825
      4 C4         -0.3728   -0.5337   -2.5138 C.ar      1 <0>        -0.0028
      5 C5          0.1500   -1.6137   -3.2219 C.ar      1 <0>        -0.1798
      6 C6          0.1232   -2.8776   -2.6517 C.ar      1 <0>         0.2324
      7 N1         -0.3843   -3.0853   -1.4570 N.ar      1 <0>        -0.4791
      8 C7         -0.8969   -2.1016   -0.7313 C.ar      1 <0>         0.3203
      9 N2         -1.4738   -2.0485    0.5110 N.pl3     1 <0>        -0.3879
     10 N3         -1.8313   -0.7201    0.7703 N.2       1 <0>        -0.2346
     11 C8         -1.6764   -3.1846    1.4134 C.3       1 <0>         0.1116
     12 C9          0.6898   -4.0427   -3.4215 C.3       1 <0>        -0.1149
     13 C10         0.9142   -3.8550   -4.9233 C.3       1 <0>        -0.1685
     14 C11        -0.2300   -4.7405   -4.4255 C.3       1 <0>        -0.1565
     15 C12        -0.3644    0.8296   -3.0851 C.2       1 <0>         0.5631
     16 O1         -0.1359    1.7866   -2.3708 O.2       1 <0>        -0.4812
     17 N4         -0.6099    1.0118   -4.3977 N.am      1 <0>        -0.6534
     18 C13        -0.4987    2.2889   -4.9599 C.ar      1 <0>         0.2309
     19 C14         0.2499    3.2669   -4.3219 C.ar      1 <0>        -0.1424
     20 C15         0.3583    4.5282   -4.8794 C.ar      1 <0>         0.0228
     21 C16        -0.2786    4.8184   -6.0736 C.ar      1 <0>        -0.1405
     22 C17        -1.0264    3.8498   -6.7157 C.ar      1 <0>        -0.0179
     23 C18        -1.1358    2.5801   -6.1665 C.ar      1 <0>        -0.1648
     24 S1         -2.0822    1.3411   -6.9873 S.3       1 <0>         0.0870
     25 C19        -3.5743    1.2563   -6.0540 C.2       1 <0>         0.1608
     26 N5         -3.9034    2.0462   -5.0586 N.2       1 <0>        -0.4699
     27 C20        -5.1091    1.6879   -4.5873 C.2       1 <0>        -0.0185
     28 C21        -5.5513    0.6425   -5.3073 C.2       1 <0>        -0.0417
     29 N6         -4.5845    0.3643   -6.2466 N.pl3     1 <0>        -0.4462
     30 C22        -4.6319   -0.6935   -7.2590 C.3       1 <0>         0.0688
     31 Cl1         1.2953    5.7507   -4.0787 Cl        1 <0>        -0.0517
     32 H1         -0.8299    2.0420   -0.0611 H         1 <0>         0.0928
     33 H2         -1.9958    1.7714   -1.3785 H         1 <0>         0.0839
     34 H3         -2.5543    1.8047    0.3112 H         1 <0>         0.0739
     35 H4          0.5717   -1.4681   -4.2054 H         1 <0>         0.1497
     36 H5         -0.8046   -3.2964    2.0582 H         1 <0>         0.0746
     37 H6         -2.5609   -3.0091    2.0256 H         1 <0>         0.0915
     38 H7         -1.8142   -4.0937    0.8279 H         1 <0>         0.0917
     39 H8          1.4044   -4.6617   -2.8790 H         1 <0>         0.1295
     40 H9          0.6519   -2.8889   -5.3545 H         1 <0>         0.1003
     41 H10         1.7767   -4.3505   -5.3691 H         1 <0>         0.1079
     42 H11        -0.1202   -5.8185   -4.5438 H         1 <0>         0.1054
     43 H12        -1.2450   -4.3569   -4.5292 H         1 <0>         0.0957
     44 H13        -0.8637    0.2580   -4.9528 H         1 <0>         0.4177
     45 H14         0.7477    3.0438   -3.3899 H         1 <0>         0.1710
     46 H15        -0.1912    5.8048   -6.5046 H         1 <0>         0.1431
     47 H16        -1.5223    4.0798   -7.6471 H         1 <0>         0.1470
     48 H17        -5.6337    2.1592   -3.7693 H         1 <0>         0.1723
     49 H18        -6.4888    0.1226   -5.1765 H         1 <0>         0.1790
     50 H19        -4.1952   -1.6056   -6.8522 H         1 <0>         0.0812
     51 H20        -5.6681   -0.8809   -7.5404 H         1 <0>         0.0918
     52 H21        -4.0676   -0.3810   -8.1376 H         1 <0>         0.0895
@<TRIPOS>BOND
     1    1    2 1
     2    1   32 1
     3    1   33 1
     4    1   34 1
     5    2   10 2
     6    2    3 1
     7    3    8 ar
     8    3    4 ar
     9    4    5 ar
    10    4   15 1
    11    5    6 ar
    12    5   35 1
    13    6    7 ar
    14    6   12 1
    15    7    8 ar
    16    8    9 1
    17    9   10 1
    18    9   11 1
    19   11   36 1
    20   11   37 1
    21   11   38 1
    22   12   14 1
    23   12   13 1
    24   12   39 1
    25   13   14 1
    26   13   40 1
    27   13   41 1
    28   14   42 1
    29   14   43 1
    30   15   16 2
    31   15   17 am
    32   17   18 1
    33   17   44 1
    34   18   23 ar
    35   18   19 ar
    36   19   20 ar
    37   19   45 1
    38   20   21 ar
    39   20   31 1
    40   21   22 ar
    41   21   46 1
    42   22   23 ar
    43   22   47 1
    44   23   24 1
    45   24   25 1
    46   25   29 1
    47   25   26 2
    48   26   27 1
    49   27   28 2
    50   27   48 1
    51   28   29 1
    52   28   49 1
    53   29   30 1
    54   30   50 1
    55   30   51 1
    56   30   52 1
