@<TRIPOS>MOLECULE
ZINC45139634
   42    45     0     0     0
SMALL
USER_CHARGES

@<TRIPOS>ATOM
      1 C1         -0.0184    1.5028    0.0103 C.3       1 <0>        -0.1135
      2 C2          0.0021   -0.0041    0.0020 C.2       1 <0>         0.2213
      3 C3         -1.2011   -0.7192    0.0039 C.2       1 <0>        -0.2237
      4 C4         -1.1687   -2.0763   -0.0036 C.2       1 <0>         0.2008
      5 N1          0.0373   -2.7118   -0.0129 N.pl3     1 <0>        -0.3092
      6 C5          1.1895   -1.9782   -0.0144 C.2       1 <0>         0.3382
      7 N2          1.1503   -0.6449   -0.0124 N.2       1 <0>        -0.4541
      8 C6          2.2554   -2.8981   -0.0245 C.2       1 <0>        -0.3061
      9 C7          1.6862   -4.1842   -0.0288 C.2       1 <0>         0.1314
     10 N3          0.3845   -4.0670   -0.0219 N.2       1 <0>        -0.3073
     11 C8          3.6856   -2.5766   -0.0296 C.2       1 <0>         0.5997
     12 O1          4.0482   -1.4148   -0.0250 O.2       1 <0>        -0.5197
     13 N4          4.5990   -3.5676   -0.0394 N.am      1 <0>        -0.7266
     14 C9          6.0283   -3.2463   -0.0444 C.3       1 <0>         0.1885
     15 H1          6.1785   -2.3412   -0.6329 H         1 <0>         0.1062
     16 C10         6.7791   -4.3867   -0.7088 C.3       1 <0>        -0.1304
     17 C11         8.2738   -4.0379   -0.7659 C.3       1 <0>        -0.1027
     18 S1          8.9162   -4.1612    0.9297 S.3       1 <0>        -0.1125
     19 C12         7.6958   -3.3199    1.8885 C.ar      1 <0>        -0.0811
     20 C13         6.4640   -2.9786    1.3658 C.ar      1 <0>        -0.0731
     21 C14         5.5456   -2.3309    2.1886 C.ar      1 <0>        -0.1282
     22 C15         5.8551   -2.0273    3.4987 C.ar      1 <0>         0.0943
     23 C16         7.0949   -2.3664    4.0139 C.ar      1 <0>        -0.1333
     24 C17         8.0076   -3.0060    3.2111 C.ar      1 <0>        -0.0751
     25 F1          4.9485   -1.3988    4.2786 F         1 <0>        -0.1378
     26 C18        -2.4496   -2.8702   -0.0013 C.3       1 <0>        -0.1182
     27 H2          1.0042    1.8801    0.0026 H         1 <0>         0.0899
     28 H3         -0.5455    1.8639   -0.8728 H         1 <0>         0.0934
     29 H4         -0.5286    1.8543    0.9071 H         1 <0>         0.0937
     30 H5         -2.1461   -0.1963    0.0116 H         1 <0>         0.1728
     31 H6          2.2342   -5.1148   -0.0368 H         1 <0>         0.2036
     32 H7          4.3100   -4.4936   -0.0430 H         1 <0>         0.4009
     33 H8          6.6399   -5.3004   -0.1310 H         1 <0>         0.0887
     34 H9          6.3999   -4.5324   -1.7203 H         1 <0>         0.0965
     35 H10         8.7954   -4.7431   -1.4130 H         1 <0>         0.1220
     36 H11         8.4044   -3.0224   -1.1398 H         1 <0>         0.0979
     37 H12         4.5764   -2.0619    1.7952 H         1 <0>         0.1475
     38 H13         7.3432   -2.1262    5.0371 H         1 <0>         0.1421
     39 H14         8.9747   -3.2732    3.6109 H         1 <0>         0.1391
     40 H15        -3.2998   -2.1881    0.0068 H         1 <0>         0.0978
     41 H16        -2.4924   -3.4935   -0.8945 H         1 <0>         0.0933
     42 H17        -2.4832   -3.5032    0.8854 H         1 <0>         0.0934
@<TRIPOS>BOND
     1    1    2 1
     2    1   27 1
     3    1   28 1
     4    1   29 1
     5    2    7 2
     6    2    3 1
     7    3    4 2
     8    3   30 1
     9    4    5 1
    10    4   26 1
    11    5   10 1
    12    5    6 1
    13    6    7 1
    14    6    8 2
    15    8    9 1
    16    8   11 1
    17    9   10 2
    18    9   31 1
    19   11   12 2
    20   11   13 am
    21   13   14 1
    22   13   32 1
    23   14   15 1
    24   14   20 1
    25   14   16 1
    26   16   17 1
    27   16   33 1
    28   16   34 1
    29   17   18 1
    30   17   35 1
    31   17   36 1
    32   18   19 1
    33   19   24 ar
    34   19   20 ar
    35   20   21 ar
    36   21   22 ar
    37   21   37 1
    38   22   23 ar
    39   22   25 1
    40   23   24 ar
    41   23   38 1
    42   24   39 1
    43   26   40 1
    44   26   41 1
    45   26   42 1
