@<TRIPOS>MOLECULE
ZINC12896600
   53    56     0     0     0
SMALL
USER_CHARGES
4-chloro-N-[(4S)-chroman-4-yl]-3-[[(2S)-tetrahydrofuran-2-yl]methylsulfamoyl]benzamide
@<TRIPOS>ATOM
      1 C1         -8.2848   -4.6037    3.7849 C.ar      1 <0>        -0.1548
      2 C2         -8.5679   -5.7716    4.4693 C.ar      1 <0>        -0.0787
      3 C3         -9.1519   -6.8329    3.8090 C.ar      1 <0>        -0.1528
      4 C4         -9.4576   -6.7327    2.4552 C.ar      1 <0>         0.1400
      5 C5         -9.1762   -5.5617    1.7739 C.ar      1 <0>        -0.1827
      6 C6         -8.5886   -4.5000    2.4417 C.ar      1 <0>        -0.0703
      7 C7         -9.4961   -5.4090    0.3084 C.3       1 <0>         0.1923
      8 H1        -10.4024   -4.8139    0.1957 H         1 <0>         0.1060
      9 C8         -9.7114   -6.7888   -0.3183 C.3       1 <0>        -0.1678
     10 C9        -10.6685   -7.5818    0.5810 C.3       1 <0>         0.0662
     11 O1        -10.0279   -7.8004    1.8386 O.3       1 <0>        -0.3147
     12 N1         -8.3836   -4.7354   -0.3659 N.am      1 <0>        -0.7154
     13 C10        -8.3131   -3.3895   -0.3692 C.2       1 <0>         0.5612
     14 O2         -9.1727   -2.7344    0.1874 O.2       1 <0>        -0.5159
     15 C11        -7.1908   -2.7100   -1.0494 C.ar      1 <0>        -0.1497
     16 C12        -6.2016   -3.4597   -1.6892 C.ar      1 <0>        -0.0210
     17 C13        -5.1568   -2.8202   -2.3217 C.ar      1 <0>        -0.1302
     18 C14        -5.0898   -1.4364   -2.3279 C.ar      1 <0>         0.0704
     19 C15        -6.0651   -0.6876   -1.6906 C.ar      1 <0>        -0.6775
     20 C16        -7.1151   -1.3161   -1.0545 C.ar      1 <0>         0.0520
     21 S1         -5.9681    1.0717   -1.6987 S.o2      1 <0>         2.6917
     22 O3         -7.0843    1.5434   -0.9566 O.2       1 <0>        -0.9450
     23 O4         -5.7295    1.4591   -3.0449 O.2       1 <0>        -0.9355
     24 N2         -4.6165    1.4915   -0.8388 N.pl3     1 <0>        -1.1052
     25 C17        -3.2887    1.1199   -1.3338 C.3       1 <0>         0.1098
     26 C18        -2.2226    1.9242   -0.5872 C.3       1 <0>         0.0667
     27 H2         -2.4416    2.9896   -0.6586 H         1 <0>         0.0813
     28 C19        -0.8325    1.6338   -1.1855 C.3       1 <0>        -0.1518
     29 C20        -0.0127    1.0858    0.0080 C.3       1 <0>        -0.1557
     30 C21        -0.8104    1.6215    1.2242 C.3       1 <0>         0.0452
     31 O5         -2.1859    1.5242    0.7930 O.3       1 <0>        -0.3706
     32 Cl1        -3.7747   -0.6381   -3.1321 Cl        1 <0>        -0.0282
     33 H3         -7.8260   -3.7731    4.3007 H         1 <0>         0.1245
     34 H4         -8.3324   -5.8527    5.5202 H         1 <0>         0.1301
     35 H5         -9.3728   -7.7443    4.3446 H         1 <0>         0.1319
     36 H6         -8.3665   -3.5870    1.9094 H         1 <0>         0.1300
     37 H7        -10.1474   -6.6776   -1.3111 H         1 <0>         0.0952
     38 H8         -8.7579   -7.3119   -0.3916 H         1 <0>         0.0856
     39 H9        -11.5868   -7.0139    0.7307 H         1 <0>         0.0703
     40 H10       -10.9010   -8.5395    0.1154 H         1 <0>         0.1162
     41 H11        -7.6977   -5.2581   -0.8100 H         1 <0>         0.4019
     42 H12        -6.2548   -4.5384   -1.6882 H         1 <0>         0.1454
     43 H13        -4.3911   -3.3990   -2.8169 H         1 <0>         0.1541
     44 H14        -7.8774   -0.7310   -0.5617 H         1 <0>         0.1687
     45 H15        -4.7040    1.9834   -0.0074 H         1 <0>         0.4271
     46 H16        -3.2253    1.3349   -2.4005 H         1 <0>         0.0949
     47 H17        -3.1236    0.0554   -1.1673 H         1 <0>         0.0800
     48 H18        -0.3830    2.5499   -1.5684 H         1 <0>         0.0834
     49 H19        -0.9054    0.8849   -1.9741 H         1 <0>         0.0807
     50 H20         0.0021   -0.0041    0.0020 H         1 <0>         0.0786
     51 H21         1.0008    1.4868    0.0005 H         1 <0>         0.0832
     52 H22        -0.6374    0.9981    2.1014 H         1 <0>         0.0951
     53 H23        -0.5453    2.6584    1.4306 H         1 <0>         0.0636
@<TRIPOS>BOND
     1    1    6 ar
     2    1    2 ar
     3    1   33 1
     4    2    3 ar
     5    2   34 1
     6    3    4 ar
     7    3   35 1
     8    4   11 1
     9    4    5 ar
    10    5    6 ar
    11    5    7 1
    12    6   36 1
    13    7    8 1
    14    7    9 1
    15    7   12 1
    16    9   10 1
    17    9   37 1
    18    9   38 1
    19   10   11 1
    20   10   39 1
    21   10   40 1
    22   12   13 am
    23   12   41 1
    24   13   14 2
    25   13   15 1
    26   15   20 ar
    27   15   16 ar
    28   16   17 ar
    29   16   42 1
    30   17   18 ar
    31   17   43 1
    32   18   19 ar
    33   18   32 1
    34   19   20 ar
    35   19   21 1
    36   20   44 1
    37   21   22 2
    38   21   23 2
    39   21   24 1
    40   24   25 1
    41   24   45 1
    42   25   26 1
    43   25   46 1
    44   25   47 1
    45   26   27 1
    46   26   31 1
    47   26   28 1
    48   28   29 1
    49   28   48 1
    50   28   49 1
    51   29   30 1
    52   29   50 1
    53   29   51 1
    54   30   31 1
    55   30   52 1
    56   30   53 1
