@<TRIPOS>MOLECULE
ZINC61832800
   43    43     0     0     0
SMALL
USER_CHARGES

@<TRIPOS>ATOM
      1 C1         -0.0187    1.5258    0.0104 C.3       1 <0>        -0.1467
      2 C2          0.0021   -0.0041    0.0020 C.3       1 <0>        -0.0891
      3 H1          0.5123   -0.3556   -0.8948 H         1 <0>         0.0737
      4 C3         -1.4333   -0.5336    0.0129 C.3       1 <0>        -0.1157
      5 C4         -1.4126   -2.0635    0.0045 C.3       1 <0>        -0.1177
      6 C5         -0.6726   -2.5703    1.2440 C.3       1 <0>        -0.1312
      7 C6          0.7628   -2.0407    1.2331 C.3       1 <0>         0.1614
      8 H2          1.2730   -2.3923    0.3363 H         1 <0>         0.0896
      9 C7          0.7421   -0.5109    1.2415 C.3       1 <0>        -0.1200
     10 N1          1.4714   -2.5260    2.4200 N.am      1 <0>        -0.7393
     11 C8          2.0564   -3.7401    2.4061 C.2       1 <0>         0.6915
     12 O1          1.9961   -4.4324    1.4089 O.2       1 <0>        -0.5297
     13 N2          2.7083   -4.1866    3.4980 N.am      1 <0>        -0.6966
     14 C9          3.2933   -5.4007    3.4841 C.2       1 <0>         0.5117
     15 O2          3.2332   -6.0912    2.4894 O.2       1 <0>        -0.4520
     16 C10         4.0222   -5.8999    4.7050 C.3       1 <0>        -0.1344
     17 C11         4.5890   -7.2934    4.4263 C.3       1 <0>        -0.0534
     18 H3          3.7858   -7.9537    4.0994 H         1 <0>         0.0781
     19 C12         5.6520   -7.2016    3.3296 C.3       1 <0>        -0.1501
     20 C13         5.2205   -7.8519    5.7031 C.3       1 <0>        -0.1795
     21 C14         5.6690   -9.2704    5.4628 C.2       1 <0>         0.4903
     22 O3          5.4992   -9.7868    4.3715 O.co2     1 <0>        -0.6887
     23 O4          6.2015   -9.9016    6.3598 O.co2     1 <0>        -0.7100
     24 H4          1.0039    1.9031    0.0027 H         1 <0>         0.0549
     25 H5         -0.5459    1.8868   -0.8726 H         1 <0>         0.0558
     26 H6         -0.5289    1.8773    0.9072 H         1 <0>         0.0544
     27 H7         -1.9435   -0.1821    0.9097 H         1 <0>         0.0624
     28 H8         -1.9605   -0.1726   -0.8702 H         1 <0>         0.0632
     29 H9         -2.4352   -2.4408    0.0122 H         1 <0>         0.0651
     30 H10        -0.9024   -2.4150   -0.8923 H         1 <0>         0.0653
     31 H11        -1.1828   -2.2188    2.1408 H         1 <0>         0.0626
     32 H12        -0.6578   -3.6602    1.2380 H         1 <0>         0.0696
     33 H13         1.7647   -0.1336    1.2338 H         1 <0>         0.0693
     34 H14         0.2319   -0.1594    2.1383 H         1 <0>         0.0681
     35 H15         1.5195   -1.9736    3.2158 H         1 <0>         0.3954
     36 H16         2.7563   -3.6341    4.2938 H         1 <0>         0.4062
     37 H17         4.8373   -5.2175    4.9458 H         1 <0>         0.0931
     38 H18         3.3303   -5.9506    5.5458 H         1 <0>         0.0930
     39 H19         6.4552   -6.5413    3.6566 H         1 <0>         0.0291
     40 H20         6.0558   -8.1944    3.1311 H         1 <0>         0.0857
     41 H21         5.2021   -6.8038    2.4200 H         1 <0>         0.0532
     42 H22         6.0797   -7.2412    5.9806 H         1 <0>         0.0563
     43 H23         4.4868   -7.8343    6.5090 H         1 <0>         0.0552
@<TRIPOS>BOND
     1    1    2 1
     2    1   24 1
     3    1   25 1
     4    1   26 1
     5    2    3 1
     6    2    9 1
     7    2    4 1
     8    4    5 1
     9    4   27 1
    10    4   28 1
    11    5    6 1
    12    5   29 1
    13    5   30 1
    14    6    7 1
    15    6   31 1
    16    6   32 1
    17    7    8 1
    18    7    9 1
    19    7   10 1
    20    9   33 1
    21    9   34 1
    22   10   11 am
    23   10   35 1
    24   11   12 2
    25   11   13 am
    26   13   14 am
    27   13   36 1
    28   14   15 2
    29   14   16 1
    30   16   17 1
    31   16   37 1
    32   16   38 1
    33   17   18 1
    34   17   19 1
    35   17   20 1
    36   19   39 1
    37   19   40 1
    38   19   41 1
    39   20   21 1
    40   20   42 1
    41   20   43 1
    42   21   22 2
    43   21   23 1
