@<TRIPOS>MOLECULE
ZINC01393167
   30    31     0     0     0
SMALL
USER_CHARGES
3-isopropylsulfanyl-5-phenyl-1,2,4-triazol-4-amine
@<TRIPOS>ATOM
      1 C1          0.4464    6.1929   -1.2753 C.3       1 <0>        -0.1536
      2 C2         -0.3312    6.2755    0.0398 C.3       1 <0>        -0.0652
      3 C3         -0.9513    7.6672    0.1791 C.3       1 <0>        -0.1392
      4 S1         -1.6423    5.0275    0.0448 S.3       1 <0>        -0.0157
      5 C4         -0.6676    3.5598    0.0276 C.2       1 <0>         0.1274
      6 N1          0.6452    3.4957    0.0147 N.2       1 <0>        -0.2711
      7 N2          1.0270    2.2686    0.0044 N.2       1 <0>        -0.2666
      8 C5         -0.0180    1.4742    0.0101 C.2       1 <0>         0.2620
      9 N3         -1.1354    2.2768    0.0191 N.pl3     1 <0>        -0.3054
     10 N4         -2.4408    1.8742    0.0217 N.3       1 <0>        -0.5810
     11 C6          0.0021   -0.0041    0.0020 C.ar      1 <0>        -0.0274
     12 C7         -1.1584   -0.7191   -0.2981 C.ar      1 <0>        -0.0916
     13 C8         -1.1315   -2.0984   -0.3096 C.ar      1 <0>        -0.1247
     14 C9          0.0395   -2.7730   -0.0129 C.ar      1 <0>        -0.1013
     15 C10         1.1921   -2.0702    0.2906 C.ar      1 <0>        -0.1232
     16 C11         1.1801   -0.6907    0.3000 C.ar      1 <0>        -0.0741
     17 H1          0.8882    5.2014   -1.3745 H         1 <0>         0.0774
     18 H2         -0.2308    6.3741   -2.1099 H         1 <0>         0.0632
     19 H3          1.2359    6.9444   -1.2783 H         1 <0>         0.0713
     20 H4          0.3460    6.0943    0.8744 H         1 <0>         0.1061
     21 H5         -1.5054    7.7260    1.1159 H         1 <0>         0.0673
     22 H6         -0.1618    8.4187    0.1760 H         1 <0>         0.0838
     23 H7         -1.6286    7.8484   -0.6556 H         1 <0>         0.0676
     24 H8         -2.7827    1.7621    0.9643 H         1 <0>         0.3691
     25 H9         -3.0186    2.5174   -0.4985 H         1 <0>         0.3780
     26 H10        -2.0743   -0.1938   -0.5251 H         1 <0>         0.1457
     27 H11        -2.0277   -2.6529   -0.5456 H         1 <0>         0.1286
     28 H12         0.0541   -3.8529   -0.0185 H         1 <0>         0.1268
     29 H13         2.1030   -2.6028    0.5210 H         1 <0>         0.1308
     30 H14         2.0805   -0.1433    0.5370 H         1 <0>         0.1352
@<TRIPOS>BOND
     1    1    2 1
     2    1   17 1
     3    1   18 1
     4    1   19 1
     5    2    3 1
     6    2    4 1
     7    2   20 1
     8    3   21 1
     9    3   22 1
    10    3   23 1
    11    4    5 1
    12    5    9 1
    13    5    6 2
    14    6    7 1
    15    7    8 2
    16    8    9 1
    17    8   11 1
    18    9   10 1
    19   10   24 1
    20   10   25 1
    21   11   16 ar
    22   11   12 ar
    23   12   13 ar
    24   12   26 1
    25   13   14 ar
    26   13   27 1
    27   14   15 ar
    28   14   28 1
    29   15   16 ar
    30   15   29 1
    31   16   30 1
