@<TRIPOS>MOLECULE
ZINC42159785
   59    61     0     0     0
SMALL
USER_CHARGES

@<TRIPOS>ATOM
      1 C1          0.8116   -0.2063   -1.2694 C.3       1 <0>        -0.1779
      2 C2          0.0076    0.0032    0.0154 C.3       1 <0>         0.0465
      3 C3         -0.0323    1.4946    0.3545 C.3       1 <0>        -0.1754
      4 C4         -1.4188   -0.5124   -0.1858 C.3       1 <0>         0.1037
      5 N1         -1.3901   -1.9638   -0.3834 N.am      1 <0>        -0.7480
      6 C5         -2.5272   -2.6272   -0.6722 C.2       1 <0>         0.5086
      7 O1         -3.5742   -2.0227   -0.7685 O.2       1 <0>        -0.4974
      8 C6         -2.4976   -4.1201   -0.8754 C.3       1 <0>         0.1002
      9 N2         -3.8493   -4.5989   -1.1755 N.am      1 <0>        -0.5664
     10 C7         -4.7386   -4.9938   -0.2410 C.2       1 <0>         0.5394
     11 O2         -4.5782   -5.0194    0.9604 O.2       1 <0>        -0.4584
     12 C8         -5.9772   -5.3974   -1.0076 C.3       1 <0>         0.1290
     13 C9         -7.1596   -4.5224   -0.6062 C.3       1 <0>        -0.1140
     14 C10        -8.3947   -4.9270   -1.4151 C.3       1 <0>        -0.1180
     15 C11        -8.7155   -6.3996   -1.1515 C.3       1 <0>        -0.1269
     16 C12        -7.5298   -7.2661   -1.5808 C.3       1 <0>        -0.1183
     17 C13        -6.2914   -6.8708   -0.7724 C.3       1 <0>        -0.1149
     18 N3         -5.6185   -5.1653   -2.4124 N.am      1 <0>        -0.7089
     19 C14        -4.3570   -4.6935   -2.4104 C.2       1 <0>         0.7081
     20 O3         -3.7470   -4.3910   -3.4171 O.2       1 <0>        -0.5387
     21 N4          0.6435   -0.7324    1.1165 N.4       1 <0>        -0.3781
     22 C15        -0.1546   -0.5689    2.3374 C.3       1 <0>        -0.0190
     23 C16         0.4588   -1.3988    3.4673 C.3       1 <0>        -0.1435
     24 C17         1.8911   -0.9217    3.7241 C.3       1 <0>        -0.1391
     25 C18         2.6945   -1.0269    2.4246 C.3       1 <0>        -0.1446
     26 C19         1.9982   -0.2108    1.3334 C.3       1 <0>        -0.0165
     27 H1          1.8278    0.1610   -1.1261 H         1 <0>         0.0891
     28 H2          0.8400   -1.2689   -1.5109 H         1 <0>         0.0811
     29 H3          0.3398    0.3395   -2.0864 H         1 <0>         0.1109
     30 H4         -0.5042    2.0405   -0.4625 H         1 <0>         0.1099
     31 H5         -0.6051    1.6439    1.2697 H         1 <0>         0.0859
     32 H6          0.9838    1.8620    0.4978 H         1 <0>         0.0909
     33 H7         -2.0176   -0.2773    0.6941 H         1 <0>         0.0960
     34 H8         -1.8575   -0.0351   -1.0620 H         1 <0>         0.1168
     35 H9         -0.5527   -2.4472   -0.3064 H         1 <0>         0.3941
     36 H10        -1.8342   -4.3606   -1.7061 H         1 <0>         0.1339
     37 H11        -2.1340   -4.6031    0.0315 H         1 <0>         0.1293
     38 H12        -7.3632   -4.6524    0.4567 H         1 <0>         0.0907
     39 H13        -6.9218   -3.4774   -0.8048 H         1 <0>         0.0761
     40 H14        -9.2428   -4.3110   -1.1161 H         1 <0>         0.0775
     41 H15        -8.1968   -4.7826   -2.4772 H         1 <0>         0.0652
     42 H16        -8.9055   -6.5452   -0.0881 H         1 <0>         0.0699
     43 H17        -9.5997   -6.6862   -1.7208 H         1 <0>         0.0725
     44 H18        -7.7622   -8.3156   -1.3999 H         1 <0>         0.0783
     45 H19        -7.3345   -7.1147   -2.6424 H         1 <0>         0.0656
     46 H20        -5.4428   -7.4778   -1.0880 H         1 <0>         0.0755
     47 H21        -6.4818   -7.0367    0.2879 H         1 <0>         0.0922
     48 H22        -6.1803   -5.3181   -3.1883 H         1 <0>         0.4437
     49 H23        -0.1669    0.4824    2.6249 H         1 <0>         0.1340
     50 H24        -1.1745   -0.9059    2.1521 H         1 <0>         0.1307
     51 H25        -0.1342   -1.2746    4.3734 H         1 <0>         0.1135
     52 H26         0.4713   -2.4505    3.1810 H         1 <0>         0.0868
     53 H27         1.8752    0.1152    4.0598 H         1 <0>         0.0825
     54 H28         2.3518   -1.5466    4.4891 H         1 <0>         0.0954
     55 H29         3.6995   -0.6369    2.5854 H         1 <0>         0.1136
     56 H30         2.7534   -2.0709    2.1166 H         1 <0>         0.0870
     57 H31         2.5677   -0.2834    0.4068 H         1 <0>         0.1335
     58 H32         1.9401    0.8329    1.6422 H         1 <0>         0.1335
     59 H33         0.6952   -1.7119    0.8796 H         1 <0>         0.4129
@<TRIPOS>BOND
     1    1    2 1
     2    1   27 1
     3    1   28 1
     4    1   29 1
     5    2    3 1
     6    2    4 1
     7    2   21 1
     8    3   30 1
     9    3   31 1
    10    3   32 1
    11    4    5 1
    12    4   33 1
    13    4   34 1
    14    5    6 am
    15    5   35 1
    16    6    7 2
    17    6    8 1
    18    8    9 1
    19    8   36 1
    20    8   37 1
    21    9   19 am
    22    9   10 am
    23   10   11 2
    24   10   12 1
    25   12   17 1
    26   12   13 1
    27   12   18 1
    28   13   14 1
    29   13   38 1
    30   13   39 1
    31   14   15 1
    32   14   40 1
    33   14   41 1
    34   15   16 1
    35   15   42 1
    36   15   43 1
    37   16   17 1
    38   16   44 1
    39   16   45 1
    40   17   46 1
    41   17   47 1
    42   18   19 am
    43   18   48 1
    44   19   20 2
    45   21   26 1
    46   21   22 1
    47   21   59 1
    48   22   23 1
    49   22   49 1
    50   22   50 1
    51   23   24 1
    52   23   51 1
    53   23   52 1
    54   24   25 1
    55   24   53 1
    56   24   54 1
    57   25   26 1
    58   25   55 1
    59   25   56 1
    60   26   57 1
    61   26   58 1
