@<TRIPOS>MOLECULE
ZINC01372085
   78    83     0     0     0
SMALL
USER_CHARGES

@<TRIPOS>ATOM
      1 C1         -7.2642   -2.4827    4.5134 C.3       1 <0>        -0.1477
      2 C2         -5.9034   -2.7217    3.8561 C.3       1 <0>        -0.0857
      3 H1         -5.4635   -1.7668    3.5685 H         1 <0>         0.0764
      4 C3         -6.0796   -3.6010    2.6146 C.3       1 <0>        -0.1177
      5 C4         -4.7756   -3.6401    1.8178 C.3       1 <0>        -0.0579
      6 C5         -3.6377   -4.0465    2.7507 C.2       1 <0>        -0.0802
      7 C6         -3.7772   -3.9397    4.0916 C.2       1 <0>        -0.1393
      8 S1         -2.2388   -4.5113    4.7689 S.3       1 <0>         0.1085
      9 C7         -1.4114   -4.8935    3.2591 C.ar      1 <0>         0.1112
     10 C8         -2.3674   -4.5604    2.2660 C.ar      1 <0>        -0.1923
     11 C9         -1.9832   -4.7641    0.9096 C.ar      1 <0>         0.4856
     12 N1         -0.7575   -5.2495    0.7204 N.ar      1 <0>        -0.5435
     13 C10         0.0794   -5.5369    1.6969 C.ar      1 <0>         0.3502
     14 N2         -0.2148   -5.3706    2.9811 N.ar      1 <0>        -0.4530
     15 C11         1.4383   -6.0809    1.3384 C.3       1 <0>        -0.0256
     16 C12         2.5210   -5.1401    1.8707 C.3       1 <0>        -0.1420
     17 C13         1.6141   -7.4663    1.9635 C.3       1 <0>        -0.1416
     18 N3         -2.8304   -4.4761   -0.1453 N.pl3     1 <0>        -0.6510
     19 C14        -2.9110   -3.1132   -0.6894 C.3       1 <0>         0.1344
     20 C15        -2.6263   -3.1692   -2.1954 C.3       1 <0>         0.1002
     21 N4         -3.4616   -4.2207   -2.7924 N.am      1 <0>        -0.6056
     22 C16        -3.3810   -5.5835   -2.2484 C.3       1 <0>         0.0847
     23 C17        -3.6615   -5.5288   -0.7460 C.3       1 <0>         0.1314
     24 C18        -4.2871   -3.9401   -3.8202 C.2       1 <0>         0.5413
     25 O1         -4.2850   -2.8327   -4.3147 O.2       1 <0>        -0.5297
     26 C19        -5.2125   -5.0024   -4.3550 C.3       1 <0>        -0.0914
     27 H2         -5.8269   -5.3949   -3.5447 H         1 <0>         0.1073
     28 C20        -4.3915   -6.1360   -4.9735 C.3       1 <0>        -0.0928
     29 C21        -3.7436   -5.6709   -6.2447 C.2       1 <0>        -0.1708
     30 C22        -4.1072   -4.6156   -6.9001 C.2       1 <0>        -0.1359
     31 C23        -5.2210   -3.7040   -6.4750 C.3       1 <0>        -0.1076
     32 C24        -6.1140   -4.4018   -5.4411 C.3       1 <0>        -0.0851
     33 H3         -6.6813   -5.1958   -5.9268 H         1 <0>         0.1089
     34 C25        -7.0588   -3.4048   -4.8210 C.2       1 <0>         0.5305
     35 O2         -7.0185   -3.1923   -3.6276 O.2       1 <0>        -0.5131
     36 N5         -7.9484   -2.7493   -5.5926 N.am      1 <0>        -0.6690
     37 C26        -8.8910   -1.8980   -5.0049 C.ar      1 <0>         0.0956
     38 C27        -8.5601   -1.1468   -3.8797 C.ar      1 <0>        -0.0762
     39 C28        -9.5267   -0.3182   -3.3343 C.ar      1 <0>        -0.1531
     40 C29       -10.7783   -0.2641   -3.9195 C.ar      1 <0>         0.0805
     41 N6        -11.0599   -0.9883   -4.9848 N.ar      1 <0>        -0.4664
     42 C30       -10.1679   -1.7855   -5.5384 C.ar      1 <0>         0.0763
     43 C31        -4.9735   -3.4406    4.8436 C.3       1 <0>        -0.0371
     44 H4         -7.1355   -1.8616    5.3998 H         1 <0>         0.0583
     45 H5         -7.9245   -1.9775    3.8084 H         1 <0>         0.0599
     46 H6         -7.7021   -3.4388    4.8001 H         1 <0>         0.0575
     47 H7         -6.3469   -4.6121    2.9218 H         1 <0>         0.0658
     48 H8         -6.8736   -3.1914    1.9902 H         1 <0>         0.0722
     49 H9         -4.8629   -4.3670    1.0103 H         1 <0>         0.0846
     50 H10        -4.5721   -2.6532    1.4022 H         1 <0>         0.0760
     51 H11         1.5245   -6.1578    0.2545 H         1 <0>         0.0979
     52 H12         2.4348   -5.0633    2.9546 H         1 <0>         0.0671
     53 H13         3.5039   -5.5336    1.6114 H         1 <0>         0.0683
     54 H14         2.3958   -4.1531    1.4254 H         1 <0>         0.0533
     55 H15         2.5969   -7.8598    1.7041 H         1 <0>         0.0682
     56 H16         1.5279   -7.3895    3.0473 H         1 <0>         0.0671
     57 H17         0.8427   -8.1366    1.5842 H         1 <0>         0.0533
     58 H18        -3.9096   -2.7104   -0.5205 H         1 <0>         0.0710
     59 H19        -2.1708   -2.4798   -0.2004 H         1 <0>         0.0795
     60 H20        -2.8681   -2.2081   -2.6493 H         1 <0>         0.1006
     61 H21        -1.5739   -3.4001   -2.3604 H         1 <0>         0.0715
     62 H22        -4.1212   -6.2170   -2.7373 H         1 <0>         0.0999
     63 H23        -2.3824   -5.9864   -2.4172 H         1 <0>         0.0786
     64 H24        -3.4169   -6.4903   -0.2945 H         1 <0>         0.0820
     65 H25        -4.7148   -5.3019   -0.5813 H         1 <0>         0.0707
     66 H26        -3.6212   -6.4501   -4.2692 H         1 <0>         0.0886
     67 H27        -5.0464   -6.9801   -5.1896 H         1 <0>         0.0893
     68 H28        -2.9231   -6.2532   -6.6373 H         1 <0>         0.1086
     69 H29        -3.5763   -4.3764   -7.8097 H         1 <0>         0.1088
     70 H30        -4.8000   -2.8003   -6.0344 H         1 <0>         0.1280
     71 H31        -5.8193   -3.4343   -7.3453 H         1 <0>         0.0717
     72 H32        -7.9353   -2.8676   -6.5553 H         1 <0>         0.4134
     73 H33        -7.5742   -1.2091   -3.4431 H         1 <0>         0.1497
     74 H34        -9.3055    0.2785   -2.4617 H         1 <0>         0.1380
     75 H35       -11.5358    0.3800   -3.4981 H         1 <0>         0.1579
     76 H36       -10.4343   -2.3601   -6.4132 H         1 <0>         0.1565
     77 H37        -4.6569   -2.7453    5.6210 H         1 <0>         0.0862
     78 H38        -5.4984   -4.2833    5.2937 H         1 <0>         0.0886
@<TRIPOS>BOND
     1    1    2 1
     2    1   44 1
     3    1   45 1
     4    1   46 1
     5    2    3 1
     6    2   43 1
     7    2    4 1
     8    4    5 1
     9    4   47 1
    10    4   48 1
    11    5    6 1
    12    5   49 1
    13    5   50 1
    14    6   10 1
    15    6    7 2
    16    7    8 1
    17    7   43 1
    18    8    9 1
    19    9   14 ar
    20    9   10 ar
    21   10   11 ar
    22   11   12 ar
    23   11   18 1
    24   12   13 ar
    25   13   14 ar
    26   13   15 1
    27   15   16 1
    28   15   17 1
    29   15   51 1
    30   16   52 1
    31   16   53 1
    32   16   54 1
    33   17   55 1
    34   17   56 1
    35   17   57 1
    36   18   23 1
    37   18   19 1
    38   19   20 1
    39   19   58 1
    40   19   59 1
    41   20   21 1
    42   20   60 1
    43   20   61 1
    44   21   22 1
    45   21   24 am
    46   22   23 1
    47   22   62 1
    48   22   63 1
    49   23   64 1
    50   23   65 1
    51   24   25 2
    52   24   26 1
    53   26   27 1
    54   26   32 1
    55   26   28 1
    56   28   29 1
    57   28   66 1
    58   28   67 1
    59   29   30 2
    60   29   68 1
    61   30   31 1
    62   30   69 1
    63   31   32 1
    64   31   70 1
    65   31   71 1
    66   32   33 1
    67   32   34 1
    68   34   35 2
    69   34   36 am
    70   36   37 1
    71   36   72 1
    72   37   42 ar
    73   37   38 ar
    74   38   39 ar
    75   38   73 1
    76   39   40 ar
    77   39   74 1
    78   40   41 ar
    79   40   75 1
    80   41   42 ar
    81   42   76 1
    82   43   77 1
    83   43   78 1
