@<TRIPOS>MOLECULE
ZINC62366997
   25    27     0     0     0
SMALL
USER_CHARGES

@<TRIPOS>ATOM
      1 C1         -0.0167    1.3768    0.0096 C.ar      1 <0>        -0.0794
      2 C2          1.1705    2.0864    0.0021 C.ar      1 <0>        -0.1244
      3 C3          2.3798    1.4165   -0.0135 C.ar      1 <0>        -0.0725
      4 C4          2.4056    0.0346   -0.0215 C.ar      1 <0>        -0.1067
      5 C5          1.2146   -0.6807   -0.0136 C.ar      1 <0>         0.1878
      6 C6          0.0021   -0.0041    0.0020 C.ar      1 <0>        -0.1327
      7 N1          1.2369   -2.0813   -0.0222 N.pl3     1 <0>        -0.3291
      8 C7          0.1433   -2.8996   -0.0213 C.ar      1 <0>         0.3724
      9 C8          0.6315   -4.2210   -0.0328 C.ar      1 <0>        -0.3287
     10 C9          2.0412   -4.1412   -0.0403 C.2       1 <0>         0.1077
     11 N2          2.3844   -2.8842   -0.0393 N.2       1 <0>        -0.2233
     12 C10        -0.3006   -5.2764   -0.0344 C.ar      1 <0>         0.5220
     13 N3         -1.5948   -4.9757   -0.0250 N.ar      1 <0>        -0.6053
     14 C11        -2.0054   -3.7199   -0.0144 C.ar      1 <0>         0.3928
     15 N4         -1.1733   -2.7014   -0.0125 N.ar      1 <0>        -0.5742
     16 N5          0.1200   -6.5918   -0.0459 N.pl3     1 <0>        -0.8173
     17 Br1         4.0599   -0.8812   -0.0441 Br        1 <0>        -0.0095
     18 H1         -0.9595    1.9033    0.0259 H         1 <0>         0.1402
     19 H2          1.1528    3.1662    0.0080 H         1 <0>         0.1380
     20 H3          3.3051    1.9734   -0.0197 H         1 <0>         0.1412
     21 H4         -0.9255   -0.5572    0.0082 H         1 <0>         0.1637
     22 H5          2.7205   -4.9807   -0.0494 H         1 <0>         0.1993
     23 H6         -3.0671   -3.5218   -0.0070 H         1 <0>         0.2081
     24 H7          1.0678   -6.7978   -0.0530 H         1 <0>         0.4152
     25 H8         -0.5324   -7.3096   -0.0469 H         1 <0>         0.4147
@<TRIPOS>BOND
     1    1    6 ar
     2    1    2 ar
     3    1   18 1
     4    2    3 ar
     5    2   19 1
     6    3    4 ar
     7    3   20 1
     8    4    5 ar
     9    4   17 1
    10    5    6 ar
    11    5    7 1
    12    6   21 1
    13    7   11 1
    14    7    8 1
    15    8   15 ar
    16    8    9 ar
    17    9   10 1
    18    9   12 ar
    19   10   11 2
    20   10   22 1
    21   12   13 ar
    22   12   16 1
    23   13   14 ar
    24   14   15 ar
    25   14   23 1
    26   16   24 1
    27   16   25 1
