@<TRIPOS>MOLECULE
ZINC02628467
   55    58     0     0     0
SMALL
USER_CHARGES
2-(methylBLAHyl)sulfanyl-N-[2-(4-sulfamoylphenyl)ethyl]acetamide
@<TRIPOS>ATOM
      1 C1          3.2426    7.1895   -1.4317 C.3       1 <0>        -0.0853
      2 C2          2.7378    5.8209   -1.0531 C.ar      1 <0>         0.3448
      3 N1          3.6216    4.9055   -0.6730 N.ar      1 <0>        -0.4628
      4 C3          3.1465    3.7194   -0.3490 C.ar      1 <0>         0.1196
      5 C4          1.7668    3.3949   -0.3903 C.ar      1 <0>        -0.1765
      6 C5          1.4186    2.0389   -0.0005 C.2       1 <0>        -0.0890
      7 C6          2.4406    1.2297    0.3599 C.2       1 <0>        -0.1354
      8 S1          3.9030    2.2238    0.1998 S.3       1 <0>         0.1220
      9 C7          2.3544   -0.1996    0.7990 C.3       1 <0>        -0.0428
     10 C8          0.8913   -0.5176    1.1383 C.3       1 <0>        -0.1157
     11 C9          0.0021   -0.0041    0.0020 C.3       1 <0>        -0.1193
     12 C10        -0.0187    1.5245    0.0104 C.3       1 <0>        -0.0672
     13 C11         0.8758    4.4263   -0.8068 C.ar      1 <0>         0.1938
     14 N2          1.4418    5.5926   -1.1153 N.ar      1 <0>        -0.5433
     15 S2         -0.8653    4.1748   -0.9080 S.3       1 <0>         0.0851
     16 C12        -1.3867    5.8118   -1.4775 C.3       1 <0>        -0.1700
     17 C13        -2.8848    5.8337   -1.6396 C.2       1 <0>         0.5324
     18 O1         -3.5358    4.8402   -1.3943 O.2       1 <0>        -0.5205
     19 N3         -3.5011    6.9571   -2.0572 N.am      1 <0>        -0.7251
     20 C14        -4.9575    6.9784   -2.2148 C.3       1 <0>         0.1240
     21 C15        -5.3982    8.3622   -2.6961 C.3       1 <0>        -0.1014
     22 C16        -6.8963    8.3840   -2.8583 C.ar      1 <0>        -0.0235
     23 C17        -7.4654    8.0417   -4.0707 C.ar      1 <0>        -0.1343
     24 C18        -8.8398    8.0575   -4.2181 C.ar      1 <0>        -0.0148
     25 C19        -9.6447    8.4244   -3.1559 C.ar      1 <0>        -0.6763
     26 C20        -9.0754    8.7717   -1.9450 C.ar      1 <0>        -0.0148
     27 C21        -7.7012    8.7518   -1.7963 C.ar      1 <0>        -0.1343
     28 S3        -11.3963    8.4487   -3.3451 S.o2      1 <0>         2.7008
     29 O2        -11.7023    7.5573   -4.4086 O.2       1 <0>        -0.9618
     30 O3        -11.9475    8.2999   -2.0438 O.2       1 <0>        -0.9618
     31 N4        -11.8117    9.9654   -3.8643 N.pl3     1 <0>        -1.2498
     32 H1          3.4656    7.2122   -2.4984 H         1 <0>         0.0904
     33 H2          2.4797    7.9339   -1.2040 H         1 <0>         0.0883
     34 H3          4.1476    7.4121   -0.8665 H         1 <0>         0.0902
     35 H4          2.9760   -0.3496    1.6817 H         1 <0>         0.0878
     36 H5          2.6935   -0.8512   -0.0063 H         1 <0>         0.0902
     37 H6          0.6162   -0.0232    2.0700 H         1 <0>         0.0709
     38 H7          0.7637   -1.5949    1.2444 H         1 <0>         0.0791
     39 H8         -1.0118   -0.3809    0.1369 H         1 <0>         0.0763
     40 H9          0.3955   -0.3558   -0.9517 H         1 <0>         0.0688
     41 H10        -0.5429    1.8873   -0.8737 H         1 <0>         0.0861
     42 H11        -0.5259    1.8777    0.9082 H         1 <0>         0.0871
     43 H12        -1.0895    6.5628   -0.7455 H         1 <0>         0.1262
     44 H13        -0.9144    6.0309   -2.4351 H         1 <0>         0.1262
     45 H14        -2.9804    7.7517   -2.2533 H         1 <0>         0.4053
     46 H15        -5.2547    6.2274   -2.9468 H         1 <0>         0.0756
     47 H16        -5.4298    6.7593   -1.2572 H         1 <0>         0.0757
     48 H17        -5.1010    9.1132   -1.9642 H         1 <0>         0.0886
     49 H18        -4.9259    8.5813   -3.6537 H         1 <0>         0.0886
     50 H19        -6.8363    7.7587   -4.9017 H         1 <0>         0.1361
     51 H20        -9.2845    7.7858   -5.1640 H         1 <0>         0.1454
     52 H21        -9.7042    9.0584   -1.1151 H         1 <0>         0.1454
     53 H22        -7.2564    9.0231   -0.8503 H         1 <0>         0.1361
     54 H23       -11.1243   10.6355   -4.0035 H         1 <0>         0.4166
     55 H24       -12.7423   10.1836   -4.0293 H         1 <0>         0.4220
@<TRIPOS>BOND
     1    1    2 1
     2    1   32 1
     3    1   33 1
     4    1   34 1
     5    2   14 ar
     6    2    3 ar
     7    3    4 ar
     8    4    8 1
     9    4    5 ar
    10    5    6 1
    11    5   13 ar
    12    6   12 1
    13    6    7 2
    14    7    8 1
    15    7    9 1
    16    9   10 1
    17    9   35 1
    18    9   36 1
    19   10   11 1
    20   10   37 1
    21   10   38 1
    22   11   12 1
    23   11   39 1
    24   11   40 1
    25   12   41 1
    26   12   42 1
    27   13   14 ar
    28   13   15 1
    29   15   16 1
    30   16   17 1
    31   16   43 1
    32   16   44 1
    33   17   18 2
    34   17   19 am
    35   19   20 1
    36   19   45 1
    37   20   21 1
    38   20   46 1
    39   20   47 1
    40   21   22 1
    41   21   48 1
    42   21   49 1
    43   22   27 ar
    44   22   23 ar
    45   23   24 ar
    46   23   50 1
    47   24   25 ar
    48   24   51 1
    49   25   26 ar
    50   25   28 1
    51   26   27 ar
    52   26   52 1
    53   27   53 1
    54   28   29 2
    55   28   30 2
    56   28   31 1
    57   31   54 1
    58   31   55 1
