@<TRIPOS>MOLECULE
ZINC10894541
   56    60     0     0     0
SMALL
USER_CHARGES
1-(2,5-dioxabicyclo[4.4.0]deca-7,9,11-trien-8-ylsulfonyl)-N-(6-ethoxybenzothiazol-2-yl)-pyrrolidine-2-carboxamide
@<TRIPOS>ATOM
      1 C1         -0.6519    9.9620    0.0559 C.3       1 <0>        -0.1534
      2 C2         -1.1573    8.5178    0.0537 C.3       1 <0>         0.0520
      3 O1         -0.0430    7.6233    0.0389 O.3       1 <0>        -0.3080
      4 C3         -0.3201    6.2920    0.0352 C.ar      1 <0>         0.1506
      5 C4         -1.6389    5.8473    0.0455 C.ar      1 <0>        -0.1890
      6 C5         -1.9427    4.5115    0.0421 C.ar      1 <0>        -0.0200
      7 C6         -0.9189    3.5360    0.0284 C.ar      1 <0>         0.0653
      8 C7          0.4082    4.0217    0.0187 C.ar      1 <0>        -0.1093
      9 C8          0.7080    5.3613    0.0225 C.ar      1 <0>        -0.1005
     10 S1          1.3600    2.5214    0.0026 S.3       1 <0>         0.0091
     11 C9         -0.0167    1.3818    0.0096 C.2       1 <0>         0.3648
     12 N1         -1.0496    2.1905    0.0180 N.2       1 <0>        -0.4927
     13 N2          0.0021   -0.0041    0.0020 N.am      1 <0>        -0.6166
     14 C10        -1.1558   -0.6938    0.0094 C.2       1 <0>         0.4879
     15 O2         -2.2141   -0.1018    0.0227 O.2       1 <0>        -0.4319
     16 C11        -1.1354   -2.2006    0.0011 C.3       1 <0>         0.1422
     17 H1         -0.6196   -2.5593   -0.8896 H         1 <0>         0.1121
     18 C12        -0.4227   -2.7228    1.2664 C.3       1 <0>        -0.1245
     19 C13        -1.2636   -3.9692    1.6495 C.3       1 <0>        -0.1276
     20 C14        -2.6914   -3.5133    1.2583 C.3       1 <0>         0.1162
     21 N3         -2.5107   -2.7195    0.0292 N.pl3     1 <0>        -0.9913
     22 S2         -3.6657   -2.4555   -1.1278 S.o2      1 <0>         2.7087
     23 O3         -4.9247   -2.6219   -0.4902 O.2       1 <0>        -0.9426
     24 O4         -3.3034   -1.2554   -1.7970 O.2       1 <0>        -0.9235
     25 C15        -3.5246   -3.7539   -2.3105 C.ar      1 <0>        -0.6818
     26 C16        -4.2492   -4.9197   -2.1452 C.ar      1 <0>        -0.0152
     27 C17        -4.1403   -5.9408   -3.0700 C.ar      1 <0>        -0.1328
     28 C18        -3.3040   -5.7982   -4.1673 C.ar      1 <0>         0.1077
     29 C19        -2.5774   -4.6254   -4.3347 C.ar      1 <0>         0.0310
     30 C20        -2.6943   -3.6030   -3.4048 C.ar      1 <0>        -0.0129
     31 O5         -1.7543   -4.4629   -5.4064 O.3       1 <0>        -0.3026
     32 C21        -1.3807   -5.6489   -6.1163 C.3       1 <0>         0.0190
     33 C22        -2.6440   -6.4899   -6.3446 C.3       1 <0>         0.0166
     34 O6         -3.2036   -6.8143   -5.0673 O.3       1 <0>        -0.3010
     35 H2         -0.0385   10.1309    0.9409 H         1 <0>         0.0675
     36 H3         -0.0553   10.1394   -0.8390 H         1 <0>         0.0675
     37 H4         -1.5018   10.6443    0.0672 H         1 <0>         0.0807
     38 H5         -1.7707    8.3489   -0.8313 H         1 <0>         0.0659
     39 H6         -1.7538    8.3404    0.9486 H         1 <0>         0.0658
     40 H7         -2.4404    6.5711    0.0561 H         1 <0>         0.1399
     41 H8         -2.9766    4.1995    0.0504 H         1 <0>         0.1394
     42 H9          1.7373    5.6881    0.0145 H         1 <0>         0.1423
     43 H10         0.8486   -0.4776   -0.0086 H         1 <0>         0.4280
     44 H11         0.6055   -3.0057    1.0408 H         1 <0>         0.0980
     45 H12        -0.4532   -1.9778    2.0614 H         1 <0>         0.0868
     46 H13        -0.9586   -4.8398    1.0688 H         1 <0>         0.0837
     47 H14        -1.1972   -4.1718    2.7184 H         1 <0>         0.0924
     48 H15        -3.3252   -4.3780    1.0617 H         1 <0>         0.0850
     49 H16        -3.1233   -2.8991    2.0485 H         1 <0>         0.0790
     50 H17        -4.9012   -5.0327   -1.2916 H         1 <0>         0.1505
     51 H18        -4.7068   -6.8508   -2.9381 H         1 <0>         0.1476
     52 H19        -2.1323   -2.6897   -3.5337 H         1 <0>         0.1508
     53 H20        -0.6614   -6.2184   -5.5278 H         1 <0>         0.0815
     54 H21        -0.9401   -5.3794   -7.0762 H         1 <0>         0.1285
     55 H22        -2.3849   -7.4058   -6.8757 H         1 <0>         0.1292
     56 H23        -3.3662   -5.9186   -6.9279 H         1 <0>         0.0840
@<TRIPOS>BOND
     1    1    2 1
     2    1   35 1
     3    1   36 1
     4    1   37 1
     5    2    3 1
     6    2   38 1
     7    2   39 1
     8    3    4 1
     9    4    9 ar
    10    4    5 ar
    11    5    6 ar
    12    5   40 1
    13    6    7 ar
    14    6   41 1
    15    7   12 1
    16    7    8 ar
    17    8    9 ar
    18    8   10 1
    19    9   42 1
    20   10   11 1
    21   11   12 2
    22   11   13 1
    23   13   14 am
    24   13   43 1
    25   14   15 2
    26   14   16 1
    27   16   17 1
    28   16   21 1
    29   16   18 1
    30   18   19 1
    31   18   44 1
    32   18   45 1
    33   19   20 1
    34   19   46 1
    35   19   47 1
    36   20   21 1
    37   20   48 1
    38   20   49 1
    39   21   22 1
    40   22   23 2
    41   22   24 2
    42   22   25 1
    43   25   30 ar
    44   25   26 ar
    45   26   27 ar
    46   26   50 1
    47   27   28 ar
    48   27   51 1
    49   28   34 1
    50   28   29 ar
    51   29   30 ar
    52   29   31 1
    53   30   52 1
    54   31   32 1
    55   32   33 1
    56   32   53 1
    57   32   54 1
    58   33   34 1
    59   33   55 1
    60   33   56 1
