@<TRIPOS>MOLECULE
ZINC05605095
   30    33     0     0     0
SMALL
USER_CHARGES
2-furylmethyleneaminoBLAHimine
@<TRIPOS>ATOM
      1 C1          2.2622    4.1379    0.0079 C.ar      1 <0>        -0.0808
      2 C2          3.4912    3.4823   -0.0073 C.ar      1 <0>        -0.1009
      3 C3          3.5557    2.1216   -0.0168 C.ar      1 <0>        -0.0683
      4 C4          2.3709    1.3698   -0.0112 C.ar      1 <0>         0.0680
      5 C5          1.1190    2.0332    0.0023 C.ar      1 <0>         0.1321
      6 C6          1.0939    3.4398    0.0137 C.ar      1 <0>        -0.0907
      7 N1         -0.0160    1.3308    0.0094 N.ar      1 <0>        -0.4439
      8 C7          0.0021   -0.0041    0.0020 C.ar      1 <0>         0.3362
      9 C8          1.2755   -0.6341   -0.0136 C.ar      1 <0>         0.0780
     10 N2          2.3983    0.0291   -0.0198 N.ar      1 <0>        -0.3550
     11 S1          0.8762   -2.3664   -0.0197 S.3       1 <0>         0.0192
     12 C9         -0.9021   -2.2136   -0.0020 C.2       1 <0>         0.4388
     13 N3         -1.8022   -3.1585    0.0017 N.2       1 <0>        -0.6472
     14 N4         -1.0864   -0.8487    0.0075 N.pl3     1 <0>        -0.3932
     15 N5         -2.3830   -0.3183    0.0224 N.2       1 <0>        -0.2342
     16 C10        -2.9955   -0.0659   -1.0974 C.2       1 <0>         0.2253
     17 C11        -4.3522    0.4891   -1.0819 C.2       1 <0>        -0.0056
     18 C12        -5.1045    0.7986   -2.1778 C.2       1 <0>        -0.1364
     19 C13        -6.3297    1.2985   -1.6994 C.2       1 <0>        -0.2217
     20 C14        -6.2701    1.2716   -0.3522 C.2       1 <0>         0.0007
     21 O1         -5.0774    0.7776    0.0174 O.3       1 <0>        -0.1522
     22 H1          2.2361    5.2176    0.0148 H         1 <0>         0.1416
     23 H2          4.4039    4.0597   -0.0120 H         1 <0>         0.1424
     24 H3          4.5141    1.6239   -0.0289 H         1 <0>         0.1458
     25 H4          0.1499    3.9643    0.0257 H         1 <0>         0.1436
     26 H5         -1.5285   -4.0890   -0.0063 H         1 <0>         0.3795
     27 H6         -2.5044   -0.2653   -2.0384 H         1 <0>         0.1477
     28 H7         -4.8156    0.6821   -3.2119 H         1 <0>         0.1602
     29 H8         -7.1613    1.6395   -2.2982 H         1 <0>         0.1591
     30 H9         -7.0539    1.5910    0.3186 H         1 <0>         0.2116
@<TRIPOS>BOND
     1    1    6 ar
     2    1    2 ar
     3    1   22 1
     4    2    3 ar
     5    2   23 1
     6    3    4 ar
     7    3   24 1
     8    4   10 ar
     9    4    5 ar
    10    5    6 ar
    11    5    7 ar
    12    6   25 1
    13    7    8 ar
    14    8   14 1
    15    8    9 ar
    16    9   10 ar
    17    9   11 1
    18   11   12 1
    19   12   13 2
    20   12   14 1
    21   13   26 1
    22   14   15 1
    23   15   16 2
    24   16   17 1
    25   16   27 1
    26   17   21 1
    27   17   18 2
    28   18   19 1
    29   18   28 1
    30   19   20 2
    31   19   29 1
    32   20   21 1
    33   20   30 1
