@<TRIPOS>MOLECULE
ZINC39637283
   70    72     0     0     0
SMALL
USER_CHARGES

@<TRIPOS>ATOM
      1 C1         -0.4316    1.4464   -0.4269 C.3       1 <0>        -0.1549
      2 C2         -0.3904   -0.0743   -0.2639 C.3       1 <0>        -0.1229
      3 C3         -1.7923   -0.5899    0.0672 C.3       1 <0>        -0.1028
      4 C4         -2.7193   -0.3489   -1.1259 C.3       1 <0>        -0.1087
      5 C5         -4.1543   -0.7111   -0.7382 C.3       1 <0>        -0.1579
      6 C6         -1.7277   -2.0662    0.3629 C.2       1 <0>         0.5453
      7 O1         -2.3608   -2.8485   -0.3139 O.2       1 <0>        -0.5242
      8 N1         -0.9665   -2.5171    1.3796 N.am      1 <0>        -0.6238
      9 C7         -0.1346   -1.7221    2.3135 C.3       1 <0>         0.1096
     10 C8         -0.3301   -2.4029    3.6867 C.3       1 <0>        -0.1158
     11 H1         -1.1166   -1.9013    4.2504 H         1 <0>         0.1111
     12 C9         -0.7465   -3.8454    3.3538 C.3       1 <0>        -0.0714
     13 C10        -0.7773   -3.9199    1.8204 C.3       1 <0>         0.1067
     14 C11        -2.1334   -4.1386    3.9179 C.3       1 <0>        -0.1337
     15 C12        -2.5014   -5.5956    3.6237 C.3       1 <0>        -0.0111
     16 N2         -1.5053   -6.4861    4.2319 N.4       1 <0>        -0.5044
     17 C13        -0.1913   -6.2616    3.6175 C.3       1 <0>        -0.0080
     18 C14         0.2743   -4.8326    3.9112 C.3       1 <0>        -0.1487
     19 C15         0.9600   -2.3933    4.4655 C.2       1 <0>         0.5205
     20 O2          2.0212   -2.3420    3.8805 O.2       1 <0>        -0.5194
     21 N3          0.9346   -2.4416    5.8121 N.am      1 <0>        -0.7227
     22 C16         2.1888   -2.4321    6.5693 C.3       1 <0>         0.1477
     23 H2          2.9512   -2.9807    6.0162 H         1 <0>         0.0960
     24 C17         2.6489   -0.9877    6.7760 C.3       1 <0>        -0.1299
     25 C18         3.9587   -0.9779    7.5667 C.3       1 <0>        -0.1209
     26 C19         3.7382   -1.6425    8.9270 C.3       1 <0>        -0.1201
     27 C20         3.2781   -3.0870    8.7203 C.3       1 <0>        -0.0830
     28 H3          3.1210   -3.5605    9.6894 H         1 <0>         0.0770
     29 C21         1.9683   -3.0968    7.9296 C.3       1 <0>        -0.0935
     30 H4          1.2059   -2.5483    8.4827 H         1 <0>         0.0768
     31 C22         1.5082   -4.5413    7.7229 C.3       1 <0>        -0.1486
     32 C23         4.3483   -3.8570    7.9439 C.3       1 <0>        -0.1574
     33 H5          0.5808    1.8240   -0.5708 H         1 <0>         0.0619
     34 H6         -1.0415    1.7026   -1.2933 H         1 <0>         0.0625
     35 H7         -0.8634    1.8961    0.4671 H         1 <0>         0.0568
     36 H8         -0.0454   -0.5300   -1.1920 H         1 <0>         0.0706
     37 H9          0.2928   -0.3346    0.5446 H         1 <0>         0.0689
     38 H10        -2.1774   -0.0612    0.9391 H         1 <0>         0.0979
     39 H11        -2.6749    0.7014   -1.4142 H         1 <0>         0.0760
     40 H12        -2.4017   -0.9693   -1.9639 H         1 <0>         0.0719
     41 H13        -4.2179   -1.7810   -0.5394 H         1 <0>         0.0665
     42 H14        -4.4396   -0.1577    0.1565 H         1 <0>         0.0476
     43 H15        -4.8277   -0.4527   -1.5554 H         1 <0>         0.0575
     44 H16         0.9133   -1.7606    2.0159 H         1 <0>         0.1016
     45 H17        -0.4830   -0.6898    2.3481 H         1 <0>         0.0945
     46 H18        -1.6101   -4.5391    1.4870 H         1 <0>         0.0882
     47 H19         0.1660   -4.3137    1.4419 H         1 <0>         0.0824
     48 H20        -2.1300   -3.9747    4.9955 H         1 <0>         0.0954
     49 H21        -2.8634   -3.4775    3.4510 H         1 <0>         0.1177
     50 H22        -3.4850   -5.8129    4.0401 H         1 <0>         0.1397
     51 H23        -2.5204   -5.7547    2.5456 H         1 <0>         0.1343
     52 H24        -1.4487   -6.2989    5.2218 H         1 <0>         0.4269
     53 H25         0.5279   -6.9696    4.0294 H         1 <0>         0.1391
     54 H26        -0.2651   -6.4050    2.5396 H         1 <0>         0.1335
     55 H27         1.2418   -4.6609    3.4394 H         1 <0>         0.1250
     56 H28         0.3644   -4.6934    4.9885 H         1 <0>         0.0989
     57 H29         0.0859   -2.4825    6.2801 H         1 <0>         0.3977
     58 H30         2.8060   -0.5142    5.8069 H         1 <0>         0.0682
     59 H31         1.8865   -0.4391    7.3291 H         1 <0>         0.0645
     60 H32         4.7211   -1.5264    7.0136 H         1 <0>         0.0687
     61 H33         4.2865    0.0512    7.7140 H         1 <0>         0.0685
     62 H34         4.6713   -1.6355    9.4903 H         1 <0>         0.0690
     63 H35         2.9758   -1.0940    9.4801 H         1 <0>         0.0643
     64 H36         2.2706   -5.0898    7.1698 H         1 <0>         0.0611
     65 H37         1.3511   -5.0148    8.6920 H         1 <0>         0.0619
     66 H38         0.5751   -4.5483    7.1596 H         1 <0>         0.0434
     67 H39         5.2814   -3.8500    8.5073 H         1 <0>         0.0598
     68 H40         4.0205   -4.8860    7.7967 H         1 <0>         0.0554
     69 H41         4.5054   -3.3835    6.9748 H         1 <0>         0.0609
     70 H42        -1.7823   -7.4457    4.0890 H         1 <0>         0.4344
@<TRIPOS>BOND
     1    1    2 1
     2    1   33 1
     3    1   34 1
     4    1   35 1
     5    2    3 1
     6    2   36 1
     7    2   37 1
     8    3    4 1
     9    3    6 1
    10    3   38 1
    11    4    5 1
    12    4   39 1
    13    4   40 1
    14    5   41 1
    15    5   42 1
    16    5   43 1
    17    6    7 2
    18    6    8 am
    19    8   13 1
    20    8    9 1
    21    9   10 1
    22    9   44 1
    23    9   45 1
    24   10   11 1
    25   10   12 1
    26   10   19 1
    27   12   18 1
    28   12   13 1
    29   12   14 1
    30   13   46 1
    31   13   47 1
    32   14   15 1
    33   14   48 1
    34   14   49 1
    35   15   16 1
    36   15   50 1
    37   15   51 1
    38   16   17 1
    39   16   52 1
    40   16   70 1
    41   17   18 1
    42   17   53 1
    43   17   54 1
    44   18   55 1
    45   18   56 1
    46   19   20 2
    47   19   21 am
    48   21   22 1
    49   21   57 1
    50   22   23 1
    51   22   29 1
    52   22   24 1
    53   24   25 1
    54   24   58 1
    55   24   59 1
    56   25   26 1
    57   25   60 1
    58   25   61 1
    59   26   27 1
    60   26   62 1
    61   26   63 1
    62   27   28 1
    63   27   29 1
    64   27   32 1
    65   29   30 1
    66   29   31 1
    67   31   64 1
    68   31   65 1
    69   31   66 1
    70   32   67 1
    71   32   68 1
    72   32   69 1
