@<TRIPOS>MOLECULE
ZINC53819234
   30    30     0     0     0
SMALL
USER_CHARGES

@<TRIPOS>ATOM
      1 C1         -0.0187    1.5258    0.0104 C.3       1 <0>        -0.1702
      2 C2          0.0021   -0.0041    0.0020 C.3       1 <0>        -0.0802
      3 C3          0.7421   -0.5109    1.2415 C.3       1 <0>        -0.1525
      4 C4         -1.4333   -0.5336    0.0129 C.3       1 <0>        -0.1663
      5 C5          0.7182   -0.4975   -1.2568 C.3       1 <0>         0.0387
      6 H1          0.7330   -1.5874   -1.2628 H         1 <0>         0.1475
      7 C6          2.1536    0.0321   -1.2676 C.3       1 <0>        -0.0579
      8 C7          2.8958   -0.5523   -2.4418 C.2       1 <0>        -0.2030
      9 C8          3.0163   -0.0681   -3.7018 C.2       1 <0>        -0.1468
     10 C9          3.7552   -0.7821   -4.6269 C.2       1 <0>        -0.1249
     11 C10         4.3375   -1.9461   -4.2454 C.2       1 <0>        -0.1568
     12 S1          3.8506   -2.0581   -2.5314 S.3       1 <0>         0.1452
     13 Br1         5.3965   -3.1374   -5.2629 Br        1 <0>         0.0646
     14 N1          0.0077   -0.0109   -2.4469 N.4       1 <0>        -0.6391
     15 H2          1.0039    1.9031    0.0027 H         1 <0>         0.0769
     16 H3         -0.5459    1.8868   -0.8726 H         1 <0>         0.0538
     17 H4         -0.5289    1.8773    0.9072 H         1 <0>         0.0882
     18 H5          0.2319   -0.1594    2.1383 H         1 <0>         0.0814
     19 H6          0.7568   -1.6008    1.2356 H         1 <0>         0.0712
     20 H7          1.7647   -0.1336    1.2338 H         1 <0>         0.0713
     21 H8         -1.9605   -0.1726   -0.8702 H         1 <0>         0.0534
     22 H9         -1.4185   -1.6235    0.0069 H         1 <0>         0.0756
     23 H10        -1.9435   -0.1821    0.9097 H         1 <0>         0.0881
     24 H11         2.1393    1.1188   -1.3512 H         1 <0>         0.1157
     25 H12         2.6537   -0.2546   -0.3425 H         1 <0>         0.1324
     26 H13         2.5419    0.8616   -3.9793 H         1 <0>         0.1422
     27 H14         3.8668   -0.4187   -5.6377 H         1 <0>         0.1509
     28 H15         0.4800   -0.3363   -3.2770 H         1 <0>         0.4337
     29 H16        -0.9389   -0.3601   -2.4397 H         1 <0>         0.4360
     30 H17        -0.0060    0.9980   -2.4413 H         1 <0>         0.4312
@<TRIPOS>BOND
     1    1    2 1
     2    1   15 1
     3    1   16 1
     4    1   17 1
     5    2    3 1
     6    2    4 1
     7    2    5 1
     8    3   18 1
     9    3   19 1
    10    3   20 1
    11    4   21 1
    12    4   22 1
    13    4   23 1
    14    5    6 1
    15    5    7 1
    16    5   14 1
    17    7    8 1
    18    7   24 1
    19    7   25 1
    20    8   12 1
    21    8    9 2
    22    9   10 1
    23    9   26 1
    24   10   11 2
    25   10   27 1
    26   11   12 1
    27   11   13 1
    28   14   28 1
    29   14   29 1
    30   14   30 1

