@<TRIPOS>MOLECULE
ZINC35411321
   27    28     0     0     0
SMALL
USER_CHARGES

@<TRIPOS>ATOM
      1 C1         -0.0187    1.5258    0.0104 C.3       1 <0>        -0.1728
      2 C2          0.0021   -0.0041    0.0020 C.3       1 <0>        -0.1443
      3 C3          0.7182   -0.4975   -1.2568 C.3       1 <0>         0.1421
      4 H1          0.2444   -0.0644   -2.1377 H         1 <0>         0.1539
      5 C4          0.6316   -2.0003   -1.3275 C.2       1 <0>         0.1112
      6 N1          1.3096   -2.8494   -0.6046 N.2       1 <0>        -0.2571
      7 N2          0.9855   -4.0503   -0.9301 N.2       1 <0>        -0.2604
      8 C5          0.0863   -4.0209   -1.8777 C.2       1 <0>         0.2048
      9 N3         -0.1695   -2.7219   -2.1501 N.pl3     1 <0>        -0.4784
     10 C6         -1.1860   -2.5911   -3.2011 C.3       1 <0>         0.0937
     11 C7         -1.2548   -3.9740   -3.8851 C.3       1 <0>        -0.1298
     12 C8         -0.7603   -4.9103   -2.7625 C.3       1 <0>        -0.0531
     13 N4          2.1288   -0.0900   -1.2092 N.4       1 <0>        -0.6296
     14 H2          1.0039    1.9031    0.0027 H         1 <0>         0.0572
     15 H3         -0.5459    1.8868   -0.8726 H         1 <0>         0.0740
     16 H4         -0.5289    1.8773    0.9072 H         1 <0>         0.0903
     17 H5          0.5293   -0.3651    0.8851 H         1 <0>         0.1019
     18 H6         -1.0205   -0.3814    0.0098 H         1 <0>         0.1114
     19 H7         -2.1515   -2.3391   -2.7625 H         1 <0>         0.1078
     20 H8         -0.8879   -1.8289   -3.9211 H         1 <0>         0.1039
     21 H9         -2.2772   -4.2143   -4.1767 H         1 <0>         0.1176
     22 H10        -0.5854   -4.0178   -4.7442 H         1 <0>         0.0970
     23 H11        -0.1608   -5.7244   -3.1699 H         1 <0>         0.1179
     24 H12        -1.6108   -5.3036   -2.2055 H         1 <0>         0.1148
     25 H13         2.5674   -0.4909   -0.3938 H         1 <0>         0.4451
     26 H14         2.6010   -0.4154   -2.0394 H         1 <0>         0.4389
     27 H15         2.1867    0.9163   -1.1619 H         1 <0>         0.4419
@<TRIPOS>BOND
     1    1    2 1
     2    1   14 1
     3    1   15 1
     4    1   16 1
     5    2    3 1
     6    2   17 1
     7    2   18 1
     8    3    4 1
     9    3    5 1
    10    3   13 1
    11    5    9 1
    12    5    6 2
    13    6    7 1
    14    7    8 2
    15    8   12 1
    16    8    9 1
    17    9   10 1
    18   10   11 1
    19   10   19 1
    20   10   20 1
    21   11   12 1
    22   11   21 1
    23   11   22 1
    24   12   23 1
    25   12   24 1
    26   13   25 1
    27   13   26 1
    28   13   27 1

