@<TRIPOS>MOLECULE
ZINC13054206
   39    40     0     0     0
SMALL
USER_CHARGES
4-[(1S)-2-[(2-chloro-5-nitro-phenyl)amino]-1-methyl-2-oxo-ethoxy]-3-nitro-benzoic acid
@<TRIPOS>ATOM
      1 C1         -7.0010   -0.7351    1.0803 C.3       1 <0>        -0.1748
      2 C2         -6.1830   -0.9077   -0.2010 C.3       1 <0>         0.0614
      3 H1         -6.7463   -0.5148   -1.0474 H         1 <0>         0.1149
      4 C3         -4.8823   -0.1576   -0.0716 C.2       1 <0>         0.5157
      5 O1         -3.8315   -0.7632   -0.0603 O.2       1 <0>        -0.4645
      6 N1         -4.8868    1.1862    0.0316 N.am      1 <0>        -0.6655
      7 C4         -3.6782    1.8923    0.0298 C.ar      1 <0>         0.1729
      8 C5         -2.5523    1.3431   -0.5691 C.ar      1 <0>        -0.0630
      9 C6         -1.3613    2.0424   -0.5697 C.ar      1 <0>        -0.0149
     10 C7         -1.2872    3.2861    0.0304 C.ar      1 <0>        -0.0655
     11 C8         -2.4073    3.8391    0.6230 C.ar      1 <0>        -0.0833
     12 C9         -3.6025    3.1446    0.6271 C.ar      1 <0>        -0.0295
     13 Cl1        -5.0072    3.8364    1.3769 Cl        1 <0>        -0.0332
     14 N2         -0.1609    1.4571   -1.2081 N.pl3     1 <0>         0.0245
     15 O2         -0.2240    0.3596   -1.7324 O.2       1 <0>        -0.1396
     16 O3          0.8886    2.0753   -1.2134 O.3       1 <0>        -0.1530
     17 O4         -5.9137   -2.2953   -0.4109 O.3       1 <0>        -0.2533
     18 C10        -6.7703   -2.9744   -1.2151 C.ar      1 <0>         0.1820
     19 C11        -7.9137   -2.3469   -1.6967 C.ar      1 <0>        -0.2329
     20 C12        -8.7824   -3.0303   -2.5173 C.ar      1 <0>         0.0142
     21 C13        -8.5191   -4.3607   -2.8573 C.ar      1 <0>        -0.1408
     22 C14        -7.3714   -4.9894   -2.3663 C.ar      1 <0>         0.0110
     23 C15        -6.5051   -4.2969   -1.5503 C.ar      1 <0>        -0.0837
     24 N3         -5.2894   -4.9617   -1.0297 N.pl3     1 <0>         0.0379
     25 O5         -5.0561   -6.1207   -1.3229 O.2       1 <0>        -0.1836
     26 O6         -4.5222   -4.3499   -0.3081 O.3       1 <0>        -0.1394
     27 C16        -9.4500   -5.0986   -3.7312 C.2       1 <0>         0.4941
     28 O7         -9.2198   -6.2548   -4.0253 O.co2     1 <0>        -0.6171
     29 H2         -6.4376   -1.1279    1.9267 H         1 <0>         0.0819
     30 H3         -7.2064    0.3234    1.2404 H         1 <0>         0.0805
     31 H4         -7.9417   -1.2776    0.9867 H         1 <0>         0.0862
     32 H5         -5.7276    1.6640    0.1070 H         1 <0>         0.4202
     33 H6         -2.6078    0.3698   -1.0339 H         1 <0>         0.1857
     34 H7         -0.3534    3.8287    0.0323 H         1 <0>         0.1652
     35 H8         -2.3473    4.8124    1.0872 H         1 <0>         0.1637
     36 H9         -8.1186   -1.3206   -1.4300 H         1 <0>         0.1476
     37 H10        -9.6681   -2.5408   -2.8946 H         1 <0>         0.1558
     38 H11        -7.1646   -6.0171   -2.6263 H         1 <0>         0.1665
     39 O8        -10.5559   -4.4906   -4.2035 O.co2     1 <0>        -0.7441
@<TRIPOS>BOND
     1    1    2 1
     2    1   29 1
     3    1   30 1
     4    1   31 1
     5    2    3 1
     6    2    4 1
     7    2   17 1
     8    4    5 2
     9    4    6 am
    10    6    7 1
    11    6   32 1
    12    7   12 ar
    13    7    8 ar
    14    8    9 ar
    15    8   33 1
    16    9   10 ar
    17    9   14 1
    18   10   11 ar
    19   10   34 1
    20   11   12 ar
    21   11   35 1
    22   12   13 1
    23   14   15 2
    24   14   16 1
    25   17   18 1
    26   18   23 ar
    27   18   19 ar
    28   19   20 ar
    29   19   36 1
    30   20   21 ar
    31   20   37 1
    32   21   22 ar
    33   21   27 1
    34   22   23 ar
    35   22   38 1
    36   23   24 1
    37   24   25 2
    38   24   26 1
    39   27   28 2
    40   27   39 1
