@<TRIPOS>MOLECULE
ZINC04756978
   49    51     0     0     0
SMALL
USER_CHARGES

@<TRIPOS>ATOM
      1 C1         -0.0914    1.4558    0.1272 C.3       1 <0>        -0.1154
      2 C2         -0.0555   -0.0507    0.1090 C.ar      1 <0>        -0.0533
      3 C3         -0.0641   -0.7277   -1.0962 C.ar      1 <0>        -0.1483
      4 C4         -0.0312   -2.1096   -1.1129 C.ar      1 <0>        -0.0204
      5 C5          0.0107   -2.8144    0.0755 C.ar      1 <0>        -0.6176
      6 C6          0.0202   -2.1373    1.2807 C.ar      1 <0>        -0.0175
      7 C7         -0.0083   -0.7554    1.2973 C.ar      1 <0>        -0.1470
      8 S1          0.0515   -4.5758    0.0542 S.o2      1 <0>         2.6021
      9 O1         -0.4627   -5.0091    1.3061 O.2       1 <0>        -1.0278
     10 O2         -0.5166   -4.9802   -1.1839 O.2       1 <0>        -1.0308
     11 N1          1.6440   -5.0282    0.0144 N.2       1 <0>        -1.0614
     12 C8          1.9829   -6.3748   -0.0085 C.ar      1 <0>         0.3240
     13 C9          0.9886   -7.3454   -0.0040 C.ar      1 <0>        -0.2662
     14 C10         1.3279   -8.6824   -0.0273 C.ar      1 <0>        -0.0472
     15 C11         2.6588   -9.0684   -0.0554 C.ar      1 <0>        -0.2344
     16 C12         3.6585   -8.1208   -0.0603 C.ar      1 <0>        -0.0443
     17 C13         3.3314   -6.7624   -0.0423 C.ar      1 <0>        -0.2119
     18 C14         4.3962   -5.7427   -0.0535 C.2       1 <0>         0.5882
     19 O3          4.4202   -4.8792    0.8023 O.2       1 <0>        -0.5228
     20 N2          5.3431   -5.7677   -1.0123 N.am      1 <0>        -0.6162
     21 C15         6.4471   -4.8388   -0.9204 C.3       1 <0>         0.1271
     22 C16         6.0790   -3.5209   -1.6455 C.3       1 <0>        -0.1379
     23 C17         6.0531   -3.7289   -3.1014 C.3       1 <0>        -0.1092
     24 C18         5.0010   -4.7271   -3.5751 C.3       1 <0>        -0.1200
     25 C19         5.5594   -6.1255   -3.4794 C.3       1 <0>        -0.1279
     26 C20         5.2132   -6.7463   -2.1097 C.3       1 <0>         0.1114
     27 H1          0.9270    1.8438    0.1055 H         1 <0>         0.0726
     28 H2         -0.6364    1.8168   -0.7450 H         1 <0>         0.0664
     29 H3         -0.5907    1.7964    1.0343 H         1 <0>         0.0667
     30 H4         -0.0969   -0.1771   -2.0247 H         1 <0>         0.1242
     31 H5         -0.0386   -2.6385   -2.0545 H         1 <0>         0.1344
     32 H6          0.0527   -2.6880    2.2092 H         1 <0>         0.1358
     33 H7          0.0029   -0.2263    2.2388 H         1 <0>         0.1250
     34 H8         -0.0508   -7.0529    0.0181 H         1 <0>         0.1013
     35 H9          0.5514   -9.4331   -0.0234 H         1 <0>         0.1048
     36 H10         2.9135  -10.1178   -0.0731 H         1 <0>         0.1059
     37 H11         4.6939   -8.4273   -0.0818 H         1 <0>         0.1075
     38 H12         6.6588   -4.6293    0.1281 H         1 <0>         0.0751
     39 H13         7.3293   -5.2761   -1.3880 H         1 <0>         0.0633
     40 H14         5.0966   -3.1875   -1.3112 H         1 <0>         0.0726
     41 H15         6.8180   -2.7572   -1.4032 H         1 <0>         0.0619
     42 H16         5.8632   -2.7705   -3.5846 H         1 <0>         0.0500
     43 H17         7.0340   -4.0836   -3.4179 H         1 <0>         0.0514
     44 H18         4.1139   -4.6460   -2.9469 H         1 <0>         0.0751
     45 H19         4.7352   -4.5117   -4.6100 H         1 <0>         0.0565
     46 H20         5.1336   -6.7398   -4.2728 H         1 <0>         0.0698
     47 H21         6.6428   -6.0907   -3.5939 H         1 <0>         0.0594
     48 H22         5.8828   -7.5846   -1.9174 H         1 <0>         0.0539
     49 H23         4.1873   -7.1138   -2.1365 H         1 <0>         0.0914
@<TRIPOS>BOND
     1    1    2 1
     2    1   27 1
     3    1   28 1
     4    1   29 1
     5    2    7 ar
     6    2    3 ar
     7    3    4 ar
     8    3   30 1
     9    4    5 ar
    10    4   31 1
    11    5    6 ar
    12    5    8 1
    13    6    7 ar
    14    6   32 1
    15    7   33 1
    16    8    9 2
    17    8   10 2
    18    8   11 1
    19   11   12 1
    20   12   17 ar
    21   12   13 ar
    22   13   14 ar
    23   13   34 1
    24   14   15 ar
    25   14   35 1
    26   15   16 ar
    27   15   36 1
    28   16   17 ar
    29   16   37 1
    30   17   18 1
    31   18   19 2
    32   18   20 am
    33   20   26 1
    34   20   21 1
    35   21   22 1
    36   21   38 1
    37   21   39 1
    38   22   23 1
    39   22   40 1
    40   22   41 1
    41   23   24 1
    42   23   42 1
    43   23   43 1
    44   24   25 1
    45   24   44 1
    46   24   45 1
    47   25   26 1
    48   25   46 1
    49   25   47 1
    50   26   48 1
    51   26   49 1
