@<TRIPOS>MOLECULE
ZINC36151967
   31    33     0     0     0
SMALL
USER_CHARGES

@<TRIPOS>ATOM
      1 C1         -0.0187    1.5258    0.0104 C.3       1 <0>        -0.1493
      2 C2          0.0021   -0.0041    0.0020 C.3       1 <0>        -0.0389
      3 C3          0.7074   -0.4901   -1.2379 C.2       1 <0>         0.1879
      4 N1          0.1539   -0.7435   -2.3927 N.2       1 <0>        -0.2761
      5 N2          1.0470   -1.1308   -3.2389 N.2       1 <0>        -0.2493
      6 C4          2.2098   -1.1381   -2.6613 C.2       1 <0>         0.1504
      7 N3          2.0435   -0.7406   -1.3616 N.pl3     1 <0>        -0.3131
      8 N4          3.0069   -0.6506   -0.4158 N.3       1 <0>        -0.4523
      9 C5          4.3692   -0.4308   -0.9125 C.3       1 <0>         0.0760
     10 H1          4.4289    0.5211   -1.4401 H         1 <0>         0.0746
     11 C6          5.3145   -0.4270    0.3031 C.3       1 <0>        -0.1047
     12 C7          5.1220   -1.7368    1.0713 C.3       1 <0>        -0.1191
     13 C8          5.4622   -2.9275    0.1753 C.3       1 <0>        -0.1141
     14 C9          4.5804   -2.9081   -1.0772 C.3       1 <0>        -0.1047
     15 C10         4.7996   -1.5813   -1.8400 C.3       1 <0>        -0.0988
     16 H2          5.8562   -1.4788   -2.0874 H         1 <0>         0.1405
     17 S1          3.7921   -1.5525   -3.3296 S.3       1 <0>         0.0337
     18 H3          1.0039    1.9031    0.0027 H         1 <0>         0.0479
     19 H4         -0.5459    1.8868   -0.8726 H         1 <0>         0.0675
     20 H5         -0.5289    1.8773    0.9072 H         1 <0>         0.0754
     21 H6          0.5293   -0.3651    0.8851 H         1 <0>         0.0864
     22 H7         -1.0205   -0.3814    0.0098 H         1 <0>         0.1075
     23 H8          2.7629    0.0329    0.2851 H         1 <0>         0.3764
     24 H9          6.3474   -0.3499   -0.0364 H         1 <0>         0.0888
     25 H10         5.0748    0.4162    0.9508 H         1 <0>         0.0754
     26 H11         5.7750   -1.7431    1.9440 H         1 <0>         0.0683
     27 H12         4.0850   -1.8150    1.3979 H         1 <0>         0.0745
     28 H13         6.5102   -2.8711   -0.1191 H         1 <0>         0.0646
     29 H14         5.2913   -3.8537    0.7240 H         1 <0>         0.0713
     30 H15         4.8461   -3.7443   -1.7239 H         1 <0>         0.0774
     31 H16         3.5325   -2.9867   -0.7873 H         1 <0>         0.0761
@<TRIPOS>BOND
     1    1    2 1
     2    1   18 1
     3    1   19 1
     4    1   20 1
     5    2    3 1
     6    2   21 1
     7    2   22 1
     8    3    7 1
     9    3    4 2
    10    4    5 1
    11    5    6 2
    12    6   17 1
    13    6    7 1
    14    7    8 1
    15    8    9 1
    16    8   23 1
    17    9   10 1
    18    9   15 1
    19    9   11 1
    20   11   12 1
    21   11   24 1
    22   11   25 1
    23   12   13 1
    24   12   26 1
    25   12   27 1
    26   13   14 1
    27   13   28 1
    28   13   29 1
    29   14   15 1
    30   14   30 1
    31   14   31 1
    32   15   16 1
    33   15   17 1
