@<TRIPOS>MOLECULE
ZINC12818643
   52    54     0     0     0
SMALL
USER_CHARGES
N-[(4R)-4-ethyl-4-methyl-2,5-dioxo-imidazolidin-1-yl]-2-[(5S,6S)-6-methyl-1,3-dioxo-2,4-diazaspiro[4.5]decan-2-yl]acetamide
@<TRIPOS>ATOM
      1 C1         -5.9925    7.5561    6.9560 C.3       1 <0>        -0.1527
      2 C2         -5.1224    7.4823    5.6997 C.3       1 <0>        -0.1200
      3 C3         -3.6939    7.9095    6.0429 C.3       1 <0>         0.1341
      4 C4         -2.7794    7.7505    4.8445 C.2       1 <0>         0.5314
      5 O1         -2.8707    8.3123    3.7741 O.2       1 <0>        -0.4460
      6 N1         -1.8447    6.8535    5.2160 N.am      1 <0>        -0.3759
      7 C5         -2.0353    6.4336    6.4719 C.2       1 <0>         0.7062
      8 O2         -1.3183    5.6269    7.0307 O.2       1 <0>        -0.5200
      9 N2         -3.1093    7.0041    7.0471 N.am      1 <0>        -0.7104
     10 N3         -0.7992    6.4189    4.3909 N.am      1 <0>        -0.5020
     11 C6         -0.8441    5.1914    3.8362 C.2       1 <0>         0.5089
     12 O3         -1.7897    4.4630    4.0513 O.2       1 <0>        -0.4949
     13 C7          0.2805    4.7239    2.9488 C.3       1 <0>         0.1131
     14 N4         -0.0034    3.3672    2.4744 N.am      1 <0>        -0.5644
     15 C8         -0.6769    3.0861    1.3397 C.2       1 <0>         0.5415
     16 O4         -1.1443    3.8770    0.5485 O.2       1 <0>        -0.4507
     17 C9         -0.7260    1.5774    1.2628 C.3       1 <0>         0.1306
     18 C10        -0.0127    1.0858    0.0080 C.3       1 <0>        -0.1126
     19 C11        -0.7528    1.5928   -1.2326 C.3       1 <0>        -0.1281
     20 C12        -2.1940    1.0796   -1.2101 C.3       1 <0>        -0.1182
     21 C13        -2.9029    1.5975    0.0429 C.3       1 <0>        -0.1237
     22 C14        -2.1706    1.0907    1.2882 C.3       1 <0>        -0.0823
     23 H1         -2.1866    0.0009    1.3006 H         1 <0>         0.0924
     24 C15        -2.8666    1.6249    2.5416 C.3       1 <0>        -0.1545
     25 N5         -0.0126    1.1353    2.4676 N.am      1 <0>        -0.7153
     26 C16         0.3729    2.2527    3.1133 C.2       1 <0>         0.7088
     27 O5          0.9923    2.2494    4.1590 O.2       1 <0>        -0.5335
     28 C17        -3.6717    9.3551    6.5437 C.3       1 <0>        -0.1510
     29 H2         -5.5874    6.8904    7.7181 H         1 <0>         0.0579
     30 H3         -5.9998    8.5786    7.3335 H         1 <0>         0.0660
     31 H4         -7.0102    7.2517    6.7116 H         1 <0>         0.0691
     32 H5         -5.5276    8.1481    4.9376 H         1 <0>         0.0932
     33 H6         -5.1151    6.4598    5.3223 H         1 <0>         0.0768
     34 H7         -3.4350    6.8497    7.9477 H         1 <0>         0.4442
     35 H8         -0.0429    7.0014    4.2189 H         1 <0>         0.4296
     36 H9          1.2129    4.7237    3.5134 H         1 <0>         0.1395
     37 H10         0.3729    5.3954    2.0951 H         1 <0>         0.1372
     38 H11         0.0021   -0.0041    0.0020 H         1 <0>         0.0875
     39 H12         1.0099    1.4630    0.0003 H         1 <0>         0.0745
     40 H13        -0.7550    2.6828   -1.2344 H         1 <0>         0.0805
     41 H14        -0.2512    1.2286   -2.1292 H         1 <0>         0.0736
     42 H15        -2.7194    1.4338   -2.0971 H         1 <0>         0.0693
     43 H16        -2.1912   -0.0104   -1.2009 H         1 <0>         0.0637
     44 H17        -2.8999    2.6875    0.0378 H         1 <0>         0.0803
     45 H18        -3.9314    1.2369    0.0539 H         1 <0>         0.0727
     46 H19        -3.8993    1.2764    2.5602 H         1 <0>         0.0651
     47 H20        -2.3454    1.2642    3.4283 H         1 <0>         0.0590
     48 H21        -2.8512    2.7147    2.5292 H         1 <0>         0.0609
     49 H22         0.1491    0.2197    2.7438 H         1 <0>         0.4418
     50 H23        -2.6432    9.6534    6.7469 H         1 <0>         0.0700
     51 H24        -4.0963   10.0098    5.7827 H         1 <0>         0.0886
     52 H25        -4.2597    9.4318    7.4583 H         1 <0>         0.0883
@<TRIPOS>BOND
     1    1    2 1
     2    1   29 1
     3    1   30 1
     4    1   31 1
     5    2    3 1
     6    2   32 1
     7    2   33 1
     8    3    9 1
     9    3    4 1
    10    3   28 1
    11    4    5 2
    12    4    6 am
    13    6    7 am
    14    6   10 1
    15    7    8 2
    16    7    9 am
    17    9   34 1
    18   10   11 am
    19   10   35 1
    20   11   12 2
    21   11   13 1
    22   13   14 1
    23   13   36 1
    24   13   37 1
    25   14   26 am
    26   14   15 am
    27   15   16 2
    28   15   17 1
    29   17   22 1
    30   17   18 1
    31   17   25 1
    32   18   19 1
    33   18   38 1
    34   18   39 1
    35   19   20 1
    36   19   40 1
    37   19   41 1
    38   20   21 1
    39   20   42 1
    40   20   43 1
    41   21   22 1
    42   21   44 1
    43   21   45 1
    44   22   23 1
    45   22   24 1
    46   24   46 1
    47   24   47 1
    48   24   48 1
    49   25   26 am
    50   25   49 1
    51   26   27 2
    52   28   50 1
    53   28   51 1
    54   28   52 1
