@<TRIPOS>MOLECULE
ZINC29993953
   49    52     0     0     0
SMALL
USER_CHARGES
1-[(3S)-1,1-dioxothiolan-3-yl]-N-[(2S)-2-methyl-3-oxo-4H-1,4-benzoxazin-6-yl]-6-oxo-4,5-dihydropyridazine-3-carboxamide
@<TRIPOS>ATOM
      1 C1         -0.6441    4.0654    1.2004 C.3       1 <0>        -0.1775
      2 C2         -1.1473    3.4638   -0.1132 C.3       1 <0>         0.0780
      3 H1         -2.1686    3.7955   -0.3519 H         1 <0>         0.1522
      4 C3         -0.2031    3.8337   -1.2288 C.2       1 <0>         0.4977
      5 O1         -0.3934    4.8396   -1.8793 O.2       1 <0>        -0.5091
      6 N1          0.8555    3.0400   -1.5012 N.am      1 <0>        -0.6704
      7 C4          1.0331    1.8647   -0.7574 C.ar      1 <0>         0.1215
      8 C5          2.2453    1.1962   -0.7721 C.ar      1 <0>        -0.1285
      9 C6          2.4002    0.0330   -0.0292 C.ar      1 <0>         0.1566
     10 C7          1.3414   -0.4567    0.7247 C.ar      1 <0>        -0.1313
     11 C8          0.1312    0.2113    0.7395 C.ar      1 <0>        -0.0854
     12 C9         -0.0273    1.3713    0.0014 C.ar      1 <0>         0.0634
     13 O2         -1.2109    2.0428    0.0122 O.3       1 <0>        -0.3003
     14 N2          3.6241   -0.6466   -0.0406 N.am      1 <0>        -0.6635
     15 C10         4.7768    0.0431   -0.1505 C.2       1 <0>         0.5803
     16 O3          4.7609    1.2598   -0.1432 O.2       1 <0>        -0.5002
     17 C11         6.0505   -0.6731   -0.2791 C.2       1 <0>         0.0904
     18 N3          6.0573   -1.9701   -0.2859 N.2       1 <0>        -0.2099
     19 N4          7.2526   -2.6865   -0.4044 N.am      1 <0>        -0.4486
     20 C12         8.4322   -2.0948   -0.1318 C.2       1 <0>         0.5001
     21 O4          9.4650   -2.7223   -0.2312 O.2       1 <0>        -0.5033
     22 C13         8.4631   -0.6499    0.2977 C.3       1 <0>        -0.1433
     23 C14         7.3314    0.1075   -0.4074 C.3       1 <0>        -0.1111
     24 C15         7.2221   -4.0886   -0.8280 C.3       1 <0>         0.1542
     25 H2          8.2640   -4.4407   -0.8478 H         1 <0>         0.1368
     26 C16         6.4014   -4.9089    0.1810 C.3       1 <0>        -0.1431
     27 C17         6.1211   -6.3053   -0.4443 C.3       1 <0>        -0.5781
     28 S1          5.7508   -5.8271   -2.1848 S.o2      1 <0>         2.3919
     29 O5          4.3491   -5.6398   -2.3245 O.2       1 <0>        -0.9236
     30 O6          6.4287   -6.7148   -3.0632 O.2       1 <0>        -0.9284
     31 C18         6.5814   -4.1869   -2.2334 C.3       1 <0>        -0.6064
     32 H3         -0.5940    5.1603    1.1068 H         1 <0>         0.0839
     33 H4          0.3577    3.6703    1.4246 H         1 <0>         0.0676
     34 H5         -1.3342    3.7981    2.0142 H         1 <0>         0.0879
     35 H6          1.5623    3.3195   -2.2963 H         1 <0>         0.4427
     36 H7          3.0675    1.5776   -1.3594 H         1 <0>         0.1450
     37 H8          1.4639   -1.3621    1.3008 H         1 <0>         0.1400
     38 H9         -0.6901   -0.1717    1.3271 H         1 <0>         0.1457
     39 H10         3.6449   -1.7434    0.0401 H         1 <0>         0.4494
     40 H11         8.3267   -0.5883    1.3875 H         1 <0>         0.1141
     41 H12         9.4318   -0.2066    0.0238 H         1 <0>         0.1265
     42 H13         7.5801    0.2315   -1.4717 H         1 <0>         0.1068
     43 H14         7.2062    1.0965    0.0576 H         1 <0>         0.1219
     44 H15         6.9728   -5.0198    1.1144 H         1 <0>         0.1059
     45 H16         5.4540   -4.3907    0.3905 H         1 <0>         0.1038
     46 H17         7.0137   -6.9397   -0.3398 H         1 <0>         0.1469
     47 H18         5.2736   -6.7763    0.0753 H         1 <0>         0.1521
     48 H19         5.8742   -3.3560   -2.3729 H         1 <0>         0.1486
     49 H20         7.3684   -4.1312   -2.9999 H         1 <0>         0.1502
@<TRIPOS>BOND
     1    1    2 1
     2    1   32 1
     3    1   33 1
     4    1   34 1
     5    2    3 1
     6    2   13 1
     7    2    4 1
     8    4    5 2
     9    4    6 am
    10    6    7 1
    11    6   35 1
    12    7   12 ar
    13    7    8 ar
    14    8    9 ar
    15    8   36 1
    16    9   10 ar
    17    9   14 1
    18   10   11 ar
    19   10   37 1
    20   11   12 ar
    21   11   38 1
    22   12   13 1
    23   14   15 am
    24   14   39 1
    25   15   16 2
    26   15   17 1
    27   17   23 1
    28   17   18 2
    29   18   19 1
    30   19   20 am
    31   19   24 1
    32   20   21 2
    33   20   22 1
    34   22   23 1
    35   22   40 1
    36   22   41 1
    37   23   42 1
    38   23   43 1
    39   24   25 1
    40   24   31 1
    41   24   26 1
    42   26   27 1
    43   26   44 1
    44   26   45 1
    45   27   28 1
    46   27   46 1
    47   27   47 1
    48   28   29 2
    49   28   30 2
    50   28   31 1
    51   31   48 1
    52   31   49 1
