@<TRIPOS>MOLECULE
ZINC37832979
   39    41     0     0     0
SMALL
USER_CHARGES

@<TRIPOS>ATOM
      1 C1          0.7846    1.6647   -0.9605 C.ar      1 <0>        -0.1340
      2 C2          1.3381    2.1059    0.2283 C.ar      1 <0>        -0.1219
      3 C3          1.7884    1.1992    1.1693 C.ar      1 <0>        -0.0906
      4 C4          1.6857   -0.1684    0.9233 C.ar      1 <0>        -0.0926
      5 C5          1.1219   -0.6167   -0.2864 C.ar      1 <0>        -0.0972
      6 C6          0.6746    0.3112   -1.2217 C.ar      1 <0>        -0.1147
      7 C7          1.0067   -2.0663   -0.5619 C.2       1 <0>         0.5852
      8 O1          1.9999   -2.7666   -0.5569 O.2       1 <0>        -0.4941
      9 N1         -0.1997   -2.6097   -0.8184 N.am      1 <0>        -0.6191
     10 C8         -1.4039   -1.7717   -0.9344 C.3       1 <0>         0.0730
     11 C9         -2.4938   -2.3523   -0.0270 C.3       1 <0>         0.0479
     12 O2         -2.6544   -3.7456   -0.3086 O.3       1 <0>        -0.3749
     13 C10        -1.4850   -4.5252   -0.0607 C.3       1 <0>         0.0827
     14 H1         -1.1722   -4.3771    0.9729 H         1 <0>         0.0649
     15 C11        -0.3592   -4.0651   -0.9989 C.3       1 <0>         0.1249
     16 H2          0.5703   -4.5785   -0.7527 H         1 <0>         0.1084
     17 C12        -0.7581   -4.3280   -2.4533 C.3       1 <0>        -0.1211
     18 C13        -1.0255   -5.8199   -2.6550 C.3       1 <0>        -0.1159
     19 C14        -2.1718   -6.2563   -1.7395 C.3       1 <0>        -0.1150
     20 C15        -1.7737   -6.0060   -0.2849 C.3       1 <0>        -0.1079
     21 C16         2.1657   -1.1416    1.9251 C.2       1 <0>         0.5133
     22 O3          2.7679   -0.7528    2.9156 O.co2     1 <0>        -0.6879
     23 O4          1.9609   -2.3362    1.7639 O.co2     1 <0>        -0.6560
     24 H3          0.4322    2.3818   -1.6870 H         1 <0>         0.1187
     25 H4          1.4191    3.1653    0.4220 H         1 <0>         0.1184
     26 H5          2.2200    1.5506    2.0948 H         1 <0>         0.1317
     27 H6          0.2414   -0.0257   -2.1519 H         1 <0>         0.1183
     28 H7         -1.1723   -0.7533   -0.6224 H         1 <0>         0.0962
     29 H8         -1.7506   -1.7704   -1.9678 H         1 <0>         0.0691
     30 H9         -2.2052   -2.2232    1.0162 H         1 <0>         0.0568
     31 H10        -3.4345   -1.8334   -0.2109 H         1 <0>         0.1007
     32 H11        -1.6599   -3.7630   -2.6895 H         1 <0>         0.0680
     33 H12         0.0496   -4.0120   -3.1135 H         1 <0>         0.0617
     34 H13        -1.2995   -6.0032   -3.6940 H         1 <0>         0.0619
     35 H14        -0.1276   -6.3869   -2.4094 H         1 <0>         0.0630
     36 H15        -3.0658   -5.6787   -1.9746 H         1 <0>         0.0689
     37 H16        -2.3730   -7.3172   -1.8884 H         1 <0>         0.0605
     38 H17        -0.8838   -6.5885   -0.0462 H         1 <0>         0.0789
     39 H18        -2.5930   -6.3172    0.3631 H         1 <0>         0.0699
@<TRIPOS>BOND
     1    1    6 ar
     2    1    2 ar
     3    1   24 1
     4    2    3 ar
     5    2   25 1
     6    3    4 ar
     7    3   26 1
     8    4    5 ar
     9    4   21 1
    10    5    6 ar
    11    5    7 1
    12    6   27 1
    13    7    8 2
    14    7    9 am
    15    9   15 1
    16    9   10 1
    17   10   11 1
    18   10   28 1
    19   10   29 1
    20   11   12 1
    21   11   30 1
    22   11   31 1
    23   12   13 1
    24   13   14 1
    25   13   20 1
    26   13   15 1
    27   15   16 1
    28   15   17 1
    29   17   18 1
    30   17   32 1
    31   17   33 1
    32   18   19 1
    33   18   34 1
    34   18   35 1
    35   19   20 1
    36   19   36 1
    37   19   37 1
    38   20   38 1
    39   20   39 1
    40   21   22 2
    41   21   23 1
