@<TRIPOS>MOLECULE
ZINC43827879
   21    22     0     0     0
SMALL
USER_CHARGES

@<TRIPOS>ATOM
      1 C1         -1.2502    1.1319   -0.0789 C.3       1 <0>         0.0820
      2 N1         -0.5406   -0.1492   -0.0373 N.pl3     1 <0>        -0.4877
      3 C2         -0.0743   -0.8764   -1.1081 C.2       1 <0>         0.1276
      4 N2          0.4972   -1.9538   -0.6225 N.2       1 <0>        -0.2613
      5 N3          0.4213   -1.9504    0.6604 N.2       1 <0>        -0.3343
      6 C3         -0.1990   -0.8676    1.0729 C.2       1 <0>         0.3804
      7 S1         -0.5315   -0.4269    2.7462 S.3       1 <0>        -0.7922
      8 C4         -0.1945   -0.5132   -2.5361 C.ar      1 <0>         0.0754
      9 C5         -0.4425    0.8105   -2.9038 C.ar      1 <0>        -0.1336
     10 C6         -0.5539    1.1445   -4.2375 C.ar      1 <0>        -0.0548
     11 C7         -0.4204    0.1705   -5.2119 C.ar      1 <0>        -0.1413
     12 C8         -0.1745   -1.1463   -4.8542 C.ar      1 <0>         0.1346
     13 C9         -0.0548   -1.4912   -3.5215 C.ar      1 <0>        -0.1230
     14 F1         -0.0461   -2.0923   -5.8101 F         1 <0>        -0.1236
     15 Br1        -0.5746    0.6374   -7.0379 Br        1 <0>        -0.0382
     16 H1         -0.5282    1.9447   -0.1571 H         1 <0>         0.0698
     17 H2         -1.9143    1.1514   -0.9430 H         1 <0>         0.0765
     18 H3         -1.8359    1.2526    0.8323 H         1 <0>         0.1005
     19 H4         -0.5473    1.5719   -2.1451 H         1 <0>         0.1430
     20 H5         -0.7461    2.1684   -4.5221 H         1 <0>         0.1445
     21 H6          0.1419   -2.5160   -3.2432 H         1 <0>         0.1558
@<TRIPOS>BOND
     1    1    2 1
     2    1   16 1
     3    1   17 1
     4    1   18 1
     5    2    6 1
     6    2    3 1
     7    3    4 2
     8    3    8 1
     9    4    5 1
    10    5    6 2
    11    6    7 1
    12    8   13 ar
    13    8    9 ar
    14    9   10 ar
    15    9   19 1
    16   10   11 ar
    17   10   20 1
    18   11   12 ar
    19   11   15 1
    20   12   13 ar
    21   12   14 1
    22   13   21 1
