@<TRIPOS>MOLECULE
ZINC08375164
   32    34     0     0     0
SMALL
USER_CHARGES
methylBLAHone
@<TRIPOS>ATOM
      1 C1         -7.9314   -1.4061    0.6341 C.3       1 <0>        -0.0908
      2 C2         -6.6933   -0.5514    0.5454 C.2       1 <0>         0.3893
      3 N1         -5.6250   -0.9079    1.2028 N.2       1 <0>        -0.4936
      4 C3         -4.5143   -0.1737    1.1442 C.2       1 <0>         0.0994
      5 C4         -4.4451    1.0029    0.3905 C.2       1 <0>        -0.2854
      6 C5         -3.1637    1.7347    0.4140 C.2       1 <0>        -0.0378
      7 C6         -2.1818    1.1630    1.1326 C.2       1 <0>        -0.1540
      8 S1         -2.8936   -0.2979    1.8503 S.3       1 <0>         0.1672
      9 C7         -0.7447    1.5879    1.2650 C.3       1 <0>        -0.0572
     10 C8         -0.0127    1.0858    0.0080 C.3       1 <0>        -0.1171
     11 C9         -0.7659    1.5995   -1.2250 C.3       1 <0>        -0.1319
     12 C10        -0.6873    3.1089   -1.1377 C.3       1 <0>        -0.1219
     13 C11        -1.7355    3.7316   -0.2326 C.3       1 <0>        -0.1316
     14 C12        -3.0926    3.0534   -0.3605 C.3       1 <0>        -0.0547
     15 C13        -5.6401    1.3562   -0.3187 C.2       1 <0>         0.5296
     16 O1         -5.6801    2.3595   -1.0079 O.2       1 <0>        -0.4471
     17 O2         -6.7159    0.5567   -0.2075 O.3       1 <0>        -0.3013
     18 H1         -8.5476   -1.0676    1.4671 H         1 <0>         0.1126
     19 H2         -8.4974   -1.3232   -0.2937 H         1 <0>         0.1043
     20 H3         -7.6447   -2.4456    0.7932 H         1 <0>         0.1159
     21 H4         -0.3039    1.1406    2.1559 H         1 <0>         0.0813
     22 H5         -0.6819    2.6746    1.3231 H         1 <0>         0.1123
     23 H6          0.0021   -0.0041    0.0020 H         1 <0>         0.0633
     24 H7          1.0084    1.4672    0.0003 H         1 <0>         0.0756
     25 H8         -0.2828    1.2480   -2.1367 H         1 <0>         0.0674
     26 H9         -1.8054    1.2728   -1.1963 H         1 <0>         0.0747
     27 H10         0.2998    3.3841   -0.7663 H         1 <0>         0.0646
     28 H11        -0.8076    3.5212   -2.1395 H         1 <0>         0.0568
     29 H12        -1.3990    3.6552    0.8013 H         1 <0>         0.0765
     30 H13        -1.8435    4.7851   -0.4909 H         1 <0>         0.0701
     31 H14        -3.8607    3.7272    0.0191 H         1 <0>         0.0811
     32 H15        -3.2897    2.8548   -1.4139 H         1 <0>         0.0826
@<TRIPOS>BOND
     1    1    2 1
     2    1   18 1
     3    1   19 1
     4    1   20 1
     5    2   17 1
     6    2    3 2
     7    3    4 1
     8    4    8 1
     9    4    5 2
    10    5    6 1
    11    5   15 1
    12    6   14 1
    13    6    7 2
    14    7    8 1
    15    7    9 1
    16    9   10 1
    17    9   21 1
    18    9   22 1
    19   10   11 1
    20   10   23 1
    21   10   24 1
    22   11   12 1
    23   11   25 1
    24   11   26 1
    25   12   13 1
    26   12   27 1
    27   12   28 1
    28   13   14 1
    29   13   29 1
    30   13   30 1
    31   14   31 1
    32   14   32 1
    33   15   16 2
    34   15   17 1
