@<TRIPOS>MOLECULE
ZINC05339085
   34    36     0     0     0
SMALL
USER_CHARGES
1,2,3,4,5,6,7,8-octahydrophenanthrene-9-carboxylic acid
@<TRIPOS>ATOM
      1 C1         -1.3248    3.3174    0.1313 C.ar      1 <0>        -0.0786
      2 C2         -2.5328    3.9972    0.1403 C.ar      1 <0>        -0.1035
      3 C3         -3.7111    3.2940    0.0390 C.ar      1 <0>        -0.0828
      4 C4         -3.6969    1.9003   -0.0706 C.ar      1 <0>        -0.1059
      5 C5         -2.5069    1.2195   -0.0910 C.ar      1 <0>        -0.0393
      6 C6         -1.3036    1.9317    0.0187 C.ar      1 <0>        -0.1221
      7 C7         -0.0144    1.2105    0.0087 C.2       1 <0>         0.4896
      8 O1          0.0108    0.0143   -0.2012 O.co2     1 <0>        -0.6244
      9 C8         -2.4271   -0.2792   -0.2183 C.3       1 <0>        -0.0748
     10 C9         -3.7746   -0.9192    0.1099 C.3       1 <0>        -0.1234
     11 C10        -4.8584   -0.2118   -0.7120 C.3       1 <0>        -0.1189
     12 C11        -5.0303    1.2042   -0.1662 C.3       1 <0>        -0.0701
     13 C12        -5.0589    3.9691    0.0352 C.3       1 <0>        -0.0742
     14 C13        -4.9488    5.3898    0.5849 C.3       1 <0>        -0.1181
     15 C14        -3.8203    6.1114   -0.1613 C.3       1 <0>        -0.1170
     16 C15        -2.4895    5.4978    0.2691 C.3       1 <0>        -0.0742
     17 H1         -0.3977    3.8655    0.2123 H         1 <0>         0.1264
     18 H2         -1.6710   -0.6610    0.4678 H         1 <0>         0.1043
     19 H3         -2.1470   -0.5347   -1.2402 H         1 <0>         0.0719
     20 H4         -3.9864   -0.8045    1.1730 H         1 <0>         0.0570
     21 H5         -3.7512   -1.9781   -0.1475 H         1 <0>         0.0600
     22 H6         -5.7990   -0.7556   -0.6245 H         1 <0>         0.0576
     23 H7         -4.5555   -0.1676   -1.7582 H         1 <0>         0.0619
     24 H8         -5.4822    1.1552    0.8245 H         1 <0>         0.0663
     25 H9         -5.6838    1.7690   -0.8312 H         1 <0>         0.0661
     26 H10        -5.7495    3.3966    0.6544 H         1 <0>         0.0691
     27 H11        -5.4391    4.0071   -0.9856 H         1 <0>         0.0684
     28 H12        -4.7206    5.3545    1.6501 H         1 <0>         0.0632
     29 H13        -5.8892    5.9181    0.4277 H         1 <0>         0.0606
     30 H14        -3.8338    7.1721    0.0895 H         1 <0>         0.0613
     31 H15        -3.9516    5.9866   -1.2361 H         1 <0>         0.0625
     32 H16        -2.2898    5.7640    1.3071 H         1 <0>         0.0691
     33 H17        -1.6923    5.8901   -0.3623 H         1 <0>         0.0699
     34 O2          1.1338    1.8804    0.2268 O.co2     1 <0>        -0.7580
@<TRIPOS>BOND
     1    1    6 ar
     2    1    2 ar
     3    1   17 1
     4    2   16 1
     5    2    3 ar
     6    3    4 ar
     7    3   13 1
     8    4   12 1
     9    4    5 ar
    10    5    6 ar
    11    5    9 1
    12    6    7 1
    13    7    8 2
    14    7   34 1
    15    9   10 1
    16    9   18 1
    17    9   19 1
    18   10   11 1
    19   10   20 1
    20   10   21 1
    21   11   12 1
    22   11   22 1
    23   11   23 1
    24   12   24 1
    25   12   25 1
    26   13   14 1
    27   13   26 1
    28   13   27 1
    29   14   15 1
    30   14   28 1
    31   14   29 1
    32   15   16 1
    33   15   30 1
    34   15   31 1
    35   16   32 1
    36   16   33 1
