@<TRIPOS>MOLECULE
ZINC35552497
   28    29     0     0     0
SMALL
USER_CHARGES

@<TRIPOS>ATOM
      1 C1         -0.0167    1.3817    0.0096 C.ar      1 <0>        -0.0831
      2 C2          1.1926    2.0594    0.0017 C.ar      1 <0>        -0.1702
      3 C3          2.3754    1.3379   -0.0134 C.ar      1 <0>         0.0958
      4 N1          2.3644    0.0228   -0.0204 N.ar      1 <0>        -0.4679
      5 C4          1.2288   -0.6641   -0.0132 C.ar      1 <0>         0.1095
      6 C5          0.0021   -0.0041    0.0020 C.ar      1 <0>        -0.1208
      7 C6          1.2661   -2.1453   -0.0216 C.2       1 <0>         0.5515
      8 O1          0.2294   -2.7792   -0.0151 O.2       1 <0>        -0.5490
      9 N2          2.4498   -2.7895   -0.0363 N.am      1 <0>        -0.4745
     10 N3          2.4850   -4.1900   -0.0442 N.2       1 <0>        -0.8886
     11 S1          3.9395   -4.9816   -0.0623 S.o2      1 <0>         2.5527
     12 O2          4.5476   -4.6853   -1.3119 O.2       1 <0>        -1.0318
     13 O3          4.5714   -4.6986    1.1786 O.2       1 <0>        -1.0325
     14 C7          3.5924   -6.7091   -0.0683 C.ar      1 <0>        -0.6382
     15 C8          3.4598   -7.4024    1.1256 C.ar      1 <0>         0.0440
     16 C9          3.1861   -8.7608    1.0733 C.ar      1 <0>        -0.1009
     17 C10         3.0552   -9.3750   -0.1613 C.ar      1 <0>         0.2149
     18 N4          3.1886   -8.6822   -1.2762 N.ar      1 <0>        -0.4782
     19 C11         3.4433   -7.3880   -1.2621 C.ar      1 <0>         0.2154
     20 Cl1         2.7126  -11.0749   -0.2426 Cl        1 <0>        -0.0138
     21 Cl2         3.0104   -9.6795    2.5357 Cl        1 <0>        -0.0367
     22 H1         -0.9521    1.9212    0.0259 H         1 <0>         0.1363
     23 H2          1.2125    3.1392    0.0070 H         1 <0>         0.1336
     24 H3          3.3193    1.8627   -0.0200 H         1 <0>         0.1573
     25 H4         -0.9212   -0.5643    0.0082 H         1 <0>         0.1477
     26 H5          3.2773   -2.2835   -0.0415 H         1 <0>         0.3692
     27 H6          3.5676   -6.8963    2.0736 H         1 <0>         0.1694
     28 H7          3.5408   -6.8534   -2.1955 H         1 <0>         0.1889
@<TRIPOS>BOND
     1    1    6 ar
     2    1    2 ar
     3    1   22 1
     4    2    3 ar
     5    2   23 1
     6    3    4 ar
     7    3   24 1
     8    4    5 ar
     9    5    6 ar
    10    5    7 1
    11    6   25 1
    12    7    8 2
    13    7    9 am
    14    9   10 1
    15    9   26 1
    16   10   11 1
    17   11   12 2
    18   11   13 2
    19   11   14 1
    20   14   19 ar
    21   14   15 ar
    22   15   16 ar
    23   15   27 1
    24   16   17 ar
    25   16   21 1
    26   17   18 ar
    27   17   20 1
    28   18   19 ar
    29   19   28 1
