@<TRIPOS>MOLECULE
ZINC20301981
   29    30     0     0     0
SMALL
USER_CHARGES
4-bromo-N-(4-bromo-2-methyl-phenyl)-2,6-dichloro-benzenesulfonamide
@<TRIPOS>ATOM
      1 C1          3.6497    7.0709   -2.0747 C.3       1 <0>        -0.0992
      2 C2          2.4557    6.3840   -2.6860 C.ar      1 <0>        -0.1088
      3 C3          1.6042    7.0864   -3.5164 C.ar      1 <0>        -0.0780
      4 C4          0.5045    6.4581   -4.0729 C.ar      1 <0>        -0.1344
      5 C5          0.2579    5.1230   -3.8051 C.ar      1 <0>        -0.0772
      6 C6          1.1091    4.4142   -2.9807 C.ar      1 <0>        -0.1719
      7 C7          2.2139    5.0426   -2.4199 C.ar      1 <0>         0.2488
      8 N1          3.0770    4.3279   -1.5854 N.2       1 <0>        -1.0635
      9 S1          2.7238    4.1618    0.0239 S.o2      1 <0>         2.5738
     10 O1          2.4195    5.4622    0.5093 O.2       1 <0>        -1.0098
     11 O2          3.7546    3.3609    0.5855 O.2       1 <0>        -0.9769
     12 C8          1.2378    3.2217    0.1368 C.ar      1 <0>        -0.6385
     13 C9          1.2965    1.8420    0.2178 C.ar      1 <0>         0.0603
     14 C10         0.1297    1.1040    0.3068 C.ar      1 <0>        -0.1125
     15 C11        -1.0957    1.7454    0.3092 C.ar      1 <0>        -0.0415
     16 C12        -1.1544    3.1252    0.2340 C.ar      1 <0>        -0.1105
     17 C13         0.0122    3.8634    0.1449 C.ar      1 <0>         0.0601
     18 Cl1        -0.0617    5.5949    0.0439 Cl        1 <0>        -0.0033
     19 Br1        -2.6908    0.7361    0.4231 Br        1 <0>        -0.0347
     20 Cl2         2.8343    1.0365    0.2082 Cl        1 <0>        -0.0089
     21 Br2        -0.6636    7.4254   -5.2025 Br        1 <0>        -0.0928
     22 H1          3.6738    8.1218   -2.3987 H         1 <0>         0.0446
     23 H2          4.5705    6.5653   -2.4012 H         1 <0>         0.0649
     24 H3          3.5763    7.0269   -0.9780 H         1 <0>         0.0771
     25 H4          1.7942    8.1284   -3.7272 H         1 <0>         0.1152
     26 H5         -0.6014    4.6351   -4.2410 H         1 <0>         0.1126
     27 H6          0.9159    3.3724   -2.7717 H         1 <0>         0.1110
     28 H7          0.1756    0.0269    0.3700 H         1 <0>         0.1471
     29 H8         -2.1112    3.6261    0.2400 H         1 <0>         0.1469
@<TRIPOS>BOND
     1    1    2 1
     2    1   22 1
     3    1   23 1
     4    1   24 1
     5    2    7 ar
     6    2    3 ar
     7    3    4 ar
     8    3   25 1
     9    4    5 ar
    10    4   21 1
    11    5    6 ar
    12    5   26 1
    13    6    7 ar
    14    6   27 1
    15    7    8 1
    16    8    9 1
    17    9   10 2
    18    9   11 2
    19    9   12 1
    20   12   17 ar
    21   12   13 ar
    22   13   14 ar
    23   13   20 1
    24   14   15 ar
    25   14   28 1
    26   15   16 ar
    27   15   19 1
    28   16   17 ar
    29   16   29 1
    30   17   18 1
