@<TRIPOS>MOLECULE
ZINC39977460
   33    35     0     0     0
SMALL
USER_CHARGES

@<TRIPOS>ATOM
      1 C1         -0.0225    1.8097    0.0120 C.3       1 <0>        -0.6437
      2 S1          0.0021   -0.0041    0.0020 S.o2      1 <0>         2.5627
      3 O1          0.8352   -0.4880    1.0465 O.2       1 <0>        -0.9994
      4 O2         -1.3147   -0.5105   -0.1678 O.2       1 <0>        -0.9992
      5 N1          0.7947   -0.4113   -1.3938 N.2       1 <0>        -1.0246
      6 C2          0.9893   -1.7374   -1.7139 C.2       1 <0>         0.5138
      7 N2          0.6181   -2.8099   -1.0486 N.2       1 <0>        -0.6580
      8 C3          0.8776   -4.0586   -1.4831 C.ar      1 <0>         0.2141
      9 C4          0.5342   -5.2859   -0.8633 C.ar      1 <0>        -0.1313
     10 C5          0.8685   -6.4722   -1.4278 C.ar      1 <0>        -0.0558
     11 C6          1.5644   -6.5338   -2.6433 C.ar      1 <0>        -0.2048
     12 C7          1.9190   -5.3411   -3.2831 C.ar      1 <0>         0.0397
     13 C8          1.5801   -4.1470   -2.7098 C.ar      1 <0>        -0.2164
     14 S2          1.8035   -2.4381   -3.1423 S.3       1 <0>        -0.0683
     15 C9          1.9178   -7.8360   -3.2383 C.2       1 <0>         0.5873
     16 O3          2.5215   -7.8789   -4.2930 O.2       1 <0>        -0.5345
     17 N3          1.5716   -8.9787   -2.6131 N.am      1 <0>        -0.7105
     18 C10         1.9227  -10.2724   -3.2041 C.3       1 <0>         0.3685
     19 H1          1.7164  -10.2824   -4.2744 H         1 <0>         0.1407
     20 N4          3.3318  -10.6199   -2.9292 N.2       1 <0>        -0.5062
     21 C11         3.6356  -11.7606   -2.4994 C.2       1 <0>         0.1642
     22 C12         2.5238  -12.7742   -2.2669 C.3       1 <0>        -0.0808
     23 S3          1.0534  -11.6566   -2.3443 S.3       1 <0>        -0.3299
     24 H2          1.0001    2.1870    0.0043 H         1 <0>         0.1201
     25 H3         -0.5497    2.1708   -0.8711 H         1 <0>         0.1201
     26 H4         -0.5327    2.1613    0.9088 H         1 <0>         0.1113
     27 H5         -0.0021   -5.2760    0.0741 H         1 <0>         0.1261
     28 H6          0.5930   -7.3902   -0.9301 H         1 <0>         0.1169
     29 H7          2.4556   -5.3634   -4.2201 H         1 <0>         0.1321
     30 H8          1.0900   -8.9446   -1.7718 H         1 <0>         0.4091
     31 H9          2.4957  -13.5207   -3.0606 H         1 <0>         0.1228
     32 H10         4.6653  -12.0173   -2.2992 H         1 <0>         0.1853
     33 H11         2.6141  -13.2437   -1.2873 H         1 <0>         0.1286
@<TRIPOS>BOND
     1    1    2 1
     2    1   24 1
     3    1   25 1
     4    1   26 1
     5    2    3 2
     6    2    4 2
     7    2    5 1
     8    5    6 1
     9    6   14 1
    10    6    7 2
    11    7    8 1
    12    8   13 ar
    13    8    9 ar
    14    9   10 ar
    15    9   27 1
    16   10   11 ar
    17   10   28 1
    18   11   12 ar
    19   11   15 1
    20   12   13 ar
    21   12   29 1
    22   13   14 1
    23   15   16 2
    24   15   17 am
    25   17   18 1
    26   17   30 1
    27   18   19 1
    28   18   23 1
    29   18   20 1
    30   20   21 2
    31   21   22 1
    32   21   32 1
    33   22   23 1
    34   22   33 1
    35   22   31 1
