@<TRIPOS>MOLECULE
ZINC38699168
   51    54     0     0     0
SMALL
USER_CHARGES

@<TRIPOS>ATOM
      1 C1         -0.0184    1.5028    0.0103 C.3       1 <0>        -0.0841
      2 C2          0.0021   -0.0041    0.0020 C.ar      1 <0>        -0.1889
      3 C3          0.0058   -0.6876   -1.1989 C.ar      1 <0>        -0.0567
      4 C4          0.0245   -2.0687   -1.2109 C.ar      1 <0>        -0.2574
      5 C5          0.0397   -2.7753   -0.0142 C.ar      1 <0>         0.2898
      6 C6          0.0364   -2.0917    1.1933 C.ar      1 <0>        -0.1681
      7 C7          0.0230   -0.7042    1.2016 C.ar      1 <0>         0.1668
      8 N1          0.0250   -0.0110    2.4171 N.am      1 <0>        -0.5527
      9 C8         -1.2613    0.3046    3.0255 C.3       1 <0>         0.1142
     10 C9         -1.0878    0.6171    4.5124 C.3       1 <0>        -0.1355
     11 C10         0.0232    1.6625    4.6680 C.3       1 <0>        -0.1219
     12 C11         1.3528    1.0190    4.2666 C.3       1 <0>        -0.1317
     13 C12         1.2038    0.3146    2.9488 C.2       1 <0>         0.5115
     14 O1          2.2094    0.0308    2.3330 O.2       1 <0>        -0.5372
     15 N2          0.0576   -4.1719   -0.0270 N.2       1 <0>        -1.0765
     16 S1          0.0609   -4.9867   -1.4686 S.o2      1 <0>         2.6128
     17 O2         -1.1911   -4.7232   -2.0870 O.2       1 <0>        -1.0392
     18 O3          1.2994   -4.6910   -2.0995 O.2       1 <0>        -1.0095
     19 C13         0.0851   -6.7082   -1.0940 C.ar      1 <0>        -0.5945
     20 C14        -0.9711   -7.4964   -1.4345 C.ar      1 <0>        -0.0067
     21 C15        -0.9727   -8.8597   -1.1477 C.ar      1 <0>        -0.1434
     22 C16         0.0846   -9.4424   -0.5176 C.ar      1 <0>        -0.0596
     23 C17         1.1914   -8.6600   -0.1520 C.ar      1 <0>        -0.1315
     24 C18         1.1975   -7.2740   -0.4475 C.ar      1 <0>         0.2098
     25 N3          2.2510   -6.5255   -0.1052 N.ar      1 <0>        -0.4451
     26 C19         3.2908   -7.0480    0.4982 C.ar      1 <0>         0.1683
     27 C20         3.3514   -8.4040    0.8125 C.ar      1 <0>        -0.1787
     28 C21         2.3040   -9.2234    0.5011 C.ar      1 <0>        -0.0562
     29 C22         4.4518   -6.1583    0.8612 C.3       1 <0>        -0.1086
     30 H1          1.0042    1.8801    0.0026 H         1 <0>         0.0490
     31 H2         -0.5455    1.8639   -0.8728 H         1 <0>         0.0500
     32 H3         -0.5286    1.8543    0.9071 H         1 <0>         0.0475
     33 H4         -0.0063   -0.1407   -2.1302 H         1 <0>         0.1048
     34 H5          0.0270   -2.6000   -2.1512 H         1 <0>         0.0973
     35 H6          0.0478   -2.6383    2.1247 H         1 <0>         0.1092
     36 H7         -1.6946    1.1698    2.5238 H         1 <0>         0.0644
     37 H8         -1.9321   -0.5470    2.9123 H         1 <0>         0.0785
     38 H9         -2.0207    1.0122    4.9143 H         1 <0>         0.0820
     39 H10        -0.8122   -0.2918    5.0473 H         1 <0>         0.0725
     40 H11        -0.1819    2.5152    4.0207 H         1 <0>         0.0696
     41 H12         0.0738    1.9926    5.7056 H         1 <0>         0.0727
     42 H13         2.1179    1.7907    4.1828 H         1 <0>         0.0962
     43 H14         1.6500    0.2973    5.0275 H         1 <0>         0.0955
     44 H15        -1.8218   -7.0577   -1.9348 H         1 <0>         0.1455
     45 H16        -1.8238   -9.4623   -1.4286 H         1 <0>         0.1320
     46 H17         0.0715  -10.5001   -0.3000 H         1 <0>         0.1310
     47 H18         4.2221   -8.8052    1.3098 H         1 <0>         0.1359
     48 H19         2.3336  -10.2766    0.7383 H         1 <0>         0.1367
     49 H20         4.2991   -5.7514    1.8608 H         1 <0>         0.0825
     50 H21         5.3742   -6.7389    0.8422 H         1 <0>         0.0724
     51 H22         4.5219   -5.3413    0.1431 H         1 <0>         0.0855
@<TRIPOS>BOND
     1    1    2 1
     2    1   30 1
     3    1   31 1
     4    1   32 1
     5    2    7 ar
     6    2    3 ar
     7    3    4 ar
     8    3   33 1
     9    4    5 ar
    10    4   34 1
    11    5    6 ar
    12    5   15 1
    13    6    7 ar
    14    6   35 1
    15    7    8 1
    16    8   13 am
    17    8    9 1
    18    9   10 1
    19    9   36 1
    20    9   37 1
    21   10   11 1
    22   10   38 1
    23   10   39 1
    24   11   12 1
    25   11   40 1
    26   11   41 1
    27   12   13 1
    28   12   42 1
    29   12   43 1
    30   13   14 2
    31   15   16 1
    32   16   17 2
    33   16   18 2
    34   16   19 1
    35   19   24 ar
    36   19   20 ar
    37   20   21 ar
    38   20   44 1
    39   21   22 ar
    40   21   45 1
    41   22   23 ar
    42   22   46 1
    43   23   28 ar
    44   23   24 ar
    45   24   25 ar
    46   25   26 ar
    47   26   27 ar
    48   26   29 1
    49   27   28 ar
    50   27   47 1
    51   28   48 1
    52   29   49 1
    53   29   50 1
    54   29   51 1
