@<TRIPOS>MOLECULE
ZINC12803935
   39    41     0     0     0
SMALL
USER_CHARGES
N-cyclohexyl-5,7-dimethyl-[1,2,4]triazolo[1,5-a]pyrimidine-2-carboxamide
@<TRIPOS>ATOM
      1 C1          2.5046    1.0694   -0.0156 C.3       1 <0>        -0.1130
      2 C2          1.1871    1.8008    0.0004 C.2       1 <0>         0.2418
      3 C3         -0.0126    1.0758    0.0080 C.2       1 <0>        -0.2220
      4 C4         -1.1924    1.7457    0.0171 C.2       1 <0>         0.2087
      5 N1         -1.1791    3.1073    0.0291 N.pl3     1 <0>        -0.3297
      6 C5          0.0100    3.7851    0.0209 C.2       1 <0>         0.4558
      7 N2          1.1691    3.1132    0.0067 N.2       1 <0>        -0.4622
      8 N3         -0.2711    5.0799    0.0297 N.2       1 <0>        -0.5066
      9 C6         -1.5943    5.2541    0.0431 C.2       1 <0>         0.2396
     10 N4         -2.1906    4.0766    0.0433 N.2       1 <0>        -0.2698
     11 C7         -2.2856    6.5642    0.0551 C.2       1 <0>         0.6140
     12 O1         -3.4999    6.6104    0.0665 O.2       1 <0>        -0.5098
     13 N5         -1.5678    7.7049    0.0533 N.am      1 <0>        -0.7137
     14 C8         -2.2514    9.0006    0.0652 C.3       1 <0>         0.1491
     15 C9         -2.6139    9.3991   -1.3668 C.3       1 <0>        -0.1307
     16 C10        -3.3278   10.7522   -1.3544 C.3       1 <0>        -0.1178
     17 C11        -2.4040   11.8108   -0.7488 C.3       1 <0>        -0.1236
     18 C12        -2.0415   11.4123    0.6832 C.3       1 <0>        -0.1167
     19 C13        -1.3276   10.0591    0.6709 C.3       1 <0>        -0.1258
     20 C14        -2.4985    0.9938    0.0192 C.3       1 <0>        -0.1320
     21 H1          2.3218   -0.0153   -0.0189 H         1 <0>         0.0912
     22 H2          3.0854    1.3406    0.8783 H         1 <0>         0.0968
     23 H3          3.0682    1.3490   -0.9179 H         1 <0>         0.0968
     24 H4          0.0021   -0.0041    0.0020 H         1 <0>         0.1777
     25 H5         -0.4686    7.6630    0.0429 H         1 <0>         0.4361
     26 H6         -3.1586    8.8831    0.6760 H         1 <0>         0.0912
     27 H7         -1.6970    9.4738   -1.9699 H         1 <0>         0.0672
     28 H8         -3.2781    8.6380   -1.8022 H         1 <0>         0.0678
     29 H9         -3.5884   11.0387   -2.3840 H         1 <0>         0.0663
     30 H10        -4.2447   10.6775   -0.7514 H         1 <0>         0.0655
     31 H11        -1.4871   11.8856   -1.3519 H         1 <0>         0.0638
     32 H12        -2.9173   12.7836   -0.7399 H         1 <0>         0.0650
     33 H13        -1.3772   12.1733    1.1186 H         1 <0>         0.0692
     34 H14        -2.9584   11.3377    1.2863 H         1 <0>         0.0660
     35 H15        -1.0671    9.7726    1.7005 H         1 <0>         0.0714
     36 H16        -0.4106   10.1338    0.0680 H         1 <0>         0.0723
     37 H17        -3.3337    1.7097    0.0269 H         1 <0>         0.0933
     38 H18        -2.5533    0.3567    0.9142 H         1 <0>         0.1035
     39 H19        -2.5618    0.3663   -0.8820 H         1 <0>         0.1034
@<TRIPOS>BOND
     1    1    2 1
     2    1   21 1
     3    1   22 1
     4    1   23 1
     5    2    7 2
     6    2    3 1
     7    3    4 2
     8    3   24 1
     9    4    5 1
    10    4   20 1
    11    5   10 1
    12    5    6 1
    13    6    7 1
    14    6    8 2
    15    8    9 1
    16    9   10 2
    17    9   11 1
    18   11   12 2
    19   11   13 am
    20   13   14 1
    21   13   25 1
    22   14   19 1
    23   14   15 1
    24   14   26 1
    25   15   16 1
    26   15   27 1
    27   15   28 1
    28   16   17 1
    29   16   29 1
    30   16   30 1
    31   17   18 1
    32   17   31 1
    33   17   32 1
    34   18   19 1
    35   18   33 1
    36   18   34 1
    37   19   35 1
    38   19   36 1
    39   20   37 1
    40   20   38 1
    41   20   39 1
