@<TRIPOS>MOLECULE
ZINC67600328
   38    38     0     0     0
SMALL
USER_CHARGES

@<TRIPOS>ATOM
      1 C1         -0.0187    1.5258    0.0104 C.3       1 <0>        -0.1548
      2 C2          0.0021   -0.0041    0.0020 C.3       1 <0>        -0.1159
      3 C3         -1.4333   -0.5336    0.0129 C.3       1 <0>        -0.1123
      4 C4         -1.4126   -2.0635    0.0045 C.3       1 <0>        -0.6117
      5 S1         -3.1144   -2.6914    0.0173 S.o2      1 <0>         2.5679
      6 O1         -3.7367   -2.3933    1.2596 O.2       1 <0>        -1.0073
      7 O2         -3.7602   -2.3800   -1.2095 O.2       1 <0>        -1.0007
      8 N1         -2.9598   -4.3401    0.0070 N.2       1 <0>        -1.0526
      9 C5         -4.0121   -5.0869    0.0130 C.2       1 <0>         0.4837
     10 O3         -5.2384   -4.5244    0.0278 O.3       1 <0>        -0.7167
     11 C6         -3.8715   -6.5873    0.0036 C.3       1 <0>         0.1878
     12 H1         -2.8184   -6.8611    0.0690 H         1 <0>         0.0920
     13 C7         -4.6464   -7.1945    1.1921 C.3       1 <0>        -0.1217
     14 C8         -5.2560   -8.4861    0.5858 C.3       1 <0>        -0.1292
     15 C9         -5.5720   -8.0315   -0.8610 C.3       1 <0>         0.1071
     16 N2         -4.4554   -7.1365   -1.2288 N.am      1 <0>        -0.5846
     17 C10        -4.0412   -6.8662   -2.4825 C.2       1 <0>         0.6577
     18 O4         -3.1082   -6.1093   -2.6642 O.2       1 <0>        -0.5460
     19 O5         -4.6613   -7.4350   -3.5336 O.3       1 <0>        -0.3712
     20 C11        -4.1697   -7.1037   -4.8339 C.3       1 <0>         0.0564
     21 H2          1.0039    1.9031    0.0027 H         1 <0>         0.0529
     22 H3         -0.5459    1.8868   -0.8726 H         1 <0>         0.0548
     23 H4         -0.5289    1.8773    0.9072 H         1 <0>         0.0548
     24 H5          0.5123   -0.3556   -0.8948 H         1 <0>         0.0637
     25 H6          0.5293   -0.3651    0.8851 H         1 <0>         0.0635
     26 H7         -1.9435   -0.1821    0.9097 H         1 <0>         0.0723
     27 H8         -1.9605   -0.1726   -0.8702 H         1 <0>         0.0723
     28 H9         -0.9024   -2.4150   -0.8923 H         1 <0>         0.1219
     29 H10        -0.8854   -2.4246    0.8875 H         1 <0>         0.1205
     30 H11        -3.9691   -7.4355    2.0114 H         1 <0>         0.0843
     31 H12        -5.4322   -6.5173    1.5265 H         1 <0>         0.0925
     32 H13        -4.5308   -9.2998    0.5901 H         1 <0>         0.0744
     33 H14        -6.1661   -8.7732    1.1126 H         1 <0>         0.0841
     34 H15        -5.6036   -8.8911   -1.5304 H         1 <0>         0.0761
     35 H16        -6.5183   -7.4913   -0.8908 H         1 <0>         0.0718
     36 H17        -4.7560   -7.6280   -5.5884 H         1 <0>         0.0965
     37 H18        -4.2538   -6.0283   -4.9910 H         1 <0>         0.0592
     38 H19        -3.1243   -7.4019   -4.9140 H         1 <0>         0.0565
@<TRIPOS>BOND
     1    1    2 1
     2    1   21 1
     3    1   22 1
     4    1   23 1
     5    2    3 1
     6    2   24 1
     7    2   25 1
     8    3    4 1
     9    3   26 1
    10    3   27 1
    11    4    5 1
    12    4   28 1
    13    4   29 1
    14    5    6 2
    15    5    7 2
    16    5    8 1
    17    8    9 2
    18    9   10 1
    19    9   11 1
    20   11   12 1
    21   11   16 1
    22   11   13 1
    23   13   14 1
    24   13   30 1
    25   13   31 1
    26   14   15 1
    27   14   32 1
    28   14   33 1
    29   15   16 1
    30   15   34 1
    31   15   35 1
    32   16   17 am
    33   17   18 2
    34   17   19 1
    35   19   20 1
    36   20   36 1
    37   20   37 1
    38   20   38 1
