@<TRIPOS>MOLECULE
ZINC13152748
   43    46     0     0     0
SMALL
USER_CHARGES

@<TRIPOS>ATOM
      1 C1         -0.0187    1.5258    0.0104 C.3       1 <0>        -0.1443
      2 C2          0.0021   -0.0041    0.0020 C.3       1 <0>        -0.1388
      3 C3          0.7182   -0.4975   -1.2568 C.3       1 <0>         0.1312
      4 N1          0.7381   -1.9623   -1.2648 N.pl3     1 <0>        -0.5060
      5 C4          1.7162   -2.7735   -0.7168 C.ar      1 <0>         0.0249
      6 C5          2.9001   -2.5258   -0.0378 C.ar      1 <0>        -0.1062
      7 C6          3.6783   -3.5801    0.3930 C.ar      1 <0>        -0.1460
      8 C7          3.2855   -4.8887    0.1516 C.ar      1 <0>        -0.1340
      9 C8          2.1143   -5.1541   -0.5208 C.ar      1 <0>        -0.0952
     10 C9          1.3130   -4.0972   -0.9637 C.ar      1 <0>         0.0774
     11 N2          0.1357   -4.0401   -1.6350 N.2       1 <0>        -0.5208
     12 C10        -0.2112   -2.7854   -1.8112 C.2       1 <0>         0.5340
     13 N3         -1.3412   -2.3663   -2.4439 N.2       1 <0>        -0.6489
     14 C11        -2.1790   -3.2395   -2.9279 C.2       1 <0>         0.4290
     15 O1         -1.9268   -4.5559   -2.8021 O.3       1 <0>        -0.6436
     16 C12        -3.4301   -2.7756   -3.6284 C.3       1 <0>         0.0961
     17 H1         -3.3818   -1.6990   -3.7922 H         1 <0>         0.0924
     18 C13        -3.5673   -3.4983   -4.9752 C.3       1 <0>         0.0398
     19 O2         -4.7703   -3.0458   -5.6061 O.3       1 <0>        -0.3113
     20 C14        -5.8862   -2.9936   -4.8287 C.ar      1 <0>         0.0484
     21 C15        -7.1332   -2.9212   -5.4317 C.ar      1 <0>        -0.1171
     22 C16        -8.2753   -2.8643   -4.6557 C.ar      1 <0>        -0.1277
     23 C17        -8.1783   -2.8796   -3.2767 C.ar      1 <0>        -0.1195
     24 C18        -6.9390   -2.9532   -2.6695 C.ar      1 <0>        -0.1199
     25 C19        -5.7889   -3.0118   -3.4425 C.ar      1 <0>         0.0643
     26 O3         -4.5758   -3.0915   -2.8300 O.3       1 <0>        -0.2892
     27 H2          1.0039    1.9031    0.0027 H         1 <0>         0.0516
     28 H3         -0.5459    1.8868   -0.8726 H         1 <0>         0.0572
     29 H4         -0.5289    1.8773    0.9072 H         1 <0>         0.0546
     30 H5          0.5293   -0.3651    0.8851 H         1 <0>         0.0594
     31 H6         -1.0205   -0.3814    0.0098 H         1 <0>         0.0719
     32 H7          0.1910   -0.1364   -2.1398 H         1 <0>         0.0907
     33 H8          1.7408   -0.1202   -1.2645 H         1 <0>         0.0698
     34 H9          3.2122   -1.5096    0.1528 H         1 <0>         0.1057
     35 H10         4.5998   -3.3856    0.9215 H         1 <0>         0.1136
     36 H11         3.9038   -5.7055    0.4938 H         1 <0>         0.1137
     37 H12         1.8152   -6.1752   -0.7057 H         1 <0>         0.1160
     38 H13        -2.7105   -3.2644   -5.6069 H         1 <0>         0.1211
     39 H14        -3.6208   -4.5746   -4.8110 H         1 <0>         0.0891
     40 H15        -7.2117   -2.9088   -6.5088 H         1 <0>         0.1304
     41 H16        -9.2452   -2.8081   -5.1273 H         1 <0>         0.1268
     42 H17        -9.0725   -2.8337   -2.6728 H         1 <0>         0.1273
     43 H18        -6.8660   -2.9650   -1.5920 H         1 <0>         0.1321
@<TRIPOS>BOND
     1    1    2 1
     2    1   27 1
     3    1   28 1
     4    1   29 1
     5    2    3 1
     6    2   30 1
     7    2   31 1
     8    3    4 1
     9    3   32 1
    10    3   33 1
    11    4   12 1
    12    4    5 1
    13    5   10 ar
    14    5    6 ar
    15    6    7 ar
    16    6   34 1
    17    7    8 ar
    18    7   35 1
    19    8    9 ar
    20    8   36 1
    21    9   10 ar
    22    9   37 1
    23   10   11 1
    24   11   12 2
    25   12   13 1
    26   13   14 2
    27   14   15 1
    28   14   16 1
    29   16   17 1
    30   16   26 1
    31   16   18 1
    32   18   19 1
    33   18   38 1
    34   18   39 1
    35   19   20 1
    36   20   25 ar
    37   20   21 ar
    38   21   22 ar
    39   21   40 1
    40   22   23 ar
    41   22   41 1
    42   23   24 ar
    43   23   42 1
    44   24   25 ar
    45   24   43 1
    46   25   26 1
