@<TRIPOS>MOLECULE
ZINC65283982
   40    42     0     0     0
SMALL
USER_CHARGES

@<TRIPOS>ATOM
      1 C1         -0.0187    1.5258    0.0104 C.3       1 <0>        -0.1472
      2 C2          0.0021   -0.0041    0.0020 C.3       1 <0>        -0.0873
      3 C3         -1.4117   -0.5257    0.0127 C.ar      1 <0>        -0.0466
      4 C4         -2.0507   -0.7660    1.2147 C.ar      1 <0>        -0.1444
      5 C5         -3.3476   -1.2445    1.2246 C.ar      1 <0>        -0.0189
      6 C6         -4.0056   -1.4822    0.0324 C.ar      1 <0>        -0.6200
      7 C7         -3.3670   -1.2410   -1.1697 C.ar      1 <0>        -0.0190
      8 C8         -2.0716   -0.7585   -1.1795 C.ar      1 <0>        -0.1444
      9 S1         -5.6582   -2.0932    0.0449 S.o2      1 <0>         2.6124
     10 O1         -5.8583   -2.7487   -1.1999 O.2       1 <0>        -1.0224
     11 O2         -5.8380   -2.7527    1.2907 O.2       1 <0>        -1.0224
     12 N1         -6.6660   -0.7792    0.0552 N.2       1 <0>        -1.0545
     13 C9         -8.0505   -0.9611    0.0662 C.2       1 <0>         0.3205
     14 C10        -8.5836   -2.2209    0.0743 C.2       1 <0>        -0.3031
     15 C11        -9.9763   -2.3823    0.0858 C.2       1 <0>        -0.0570
     16 C12       -10.7878   -1.3013    0.0889 C.2       1 <0>        -0.0372
     17 N2        -10.2691   -0.0427    0.0805 N.pl3     1 <0>        -0.2515
     18 C13        -8.9184    0.1534    0.0751 C.2       1 <0>         0.2732
     19 N3         -8.7062    1.4643    0.0751 N.2       1 <0>        -0.5141
     20 C14        -9.8662    2.1041    0.0859 C.2       1 <0>         0.2171
     21 N4        -10.8493    1.2338    0.0807 N.2       1 <0>        -0.3604
     22 C15       -10.0320    3.6019    0.0898 C.3       1 <0>        -0.0212
     23 C16       -10.1001    4.1113   -1.3513 C.3       1 <0>        -0.1430
     24 H1          1.0039    1.9031    0.0027 H         1 <0>         0.0570
     25 H2         -0.5459    1.8868   -0.8726 H         1 <0>         0.0577
     26 H3         -0.5289    1.8773    0.9072 H         1 <0>         0.0577
     27 H4          0.5123   -0.3556   -0.8948 H         1 <0>         0.0724
     28 H5          0.5293   -0.3651    0.8851 H         1 <0>         0.0724
     29 H6         -1.5366   -0.5803    2.1462 H         1 <0>         0.1253
     30 H7         -3.8465   -1.4329    2.1637 H         1 <0>         0.1364
     31 H8         -3.8810   -1.4271   -2.1011 H         1 <0>         0.1364
     32 H9         -1.5739   -0.5665   -2.1185 H         1 <0>         0.1252
     33 H10        -7.9362   -3.0853    0.0715 H         1 <0>         0.1187
     34 H11       -10.4025   -3.3746    0.0918 H         1 <0>         0.1401
     35 H12       -11.8591   -1.4376    0.0978 H         1 <0>         0.1502
     36 H13       -10.9523    3.8642    0.6118 H         1 <0>         0.0799
     37 H14        -9.1832    4.0601    0.5974 H         1 <0>         0.0871
     38 H15       -10.2201    5.1947   -1.3484 H         1 <0>         0.0606
     39 H16        -9.1799    3.8490   -1.8732 H         1 <0>         0.0600
     40 H17       -10.9490    3.6531   -1.8589 H         1 <0>         0.0545
@<TRIPOS>BOND
     1    1    2 1
     2    1   24 1
     3    1   25 1
     4    1   26 1
     5    2    3 1
     6    2   27 1
     7    2   28 1
     8    3    8 ar
     9    3    4 ar
    10    4    5 ar
    11    4   29 1
    12    5    6 ar
    13    5   30 1
    14    6    7 ar
    15    6    9 1
    16    7    8 ar
    17    7   31 1
    18    8   32 1
    19    9   10 2
    20    9   11 2
    21    9   12 1
    22   12   13 1
    23   13   18 1
    24   13   14 2
    25   14   15 1
    26   14   33 1
    27   15   16 2
    28   15   34 1
    29   16   17 1
    30   16   35 1
    31   17   21 1
    32   17   18 1
    33   18   19 2
    34   19   20 1
    35   20   21 2
    36   20   22 1
    37   22   23 1
    38   22   36 1
    39   22   37 1
    40   23   38 1
    41   23   39 1
    42   23   40 1
