@<TRIPOS>MOLECULE
ZINC01470926
   32    32     0     0     0
SMALL
USER_CHARGES
N,N-bis(2,6-dimethyl-2-piperidyl)-2,6-dimethyl-piperidine-1-carboxamide
@<TRIPOS>ATOM
      1 C1         -0.0134    1.0852    0.0080 C.3       1 <0>        -0.1432
      2 C2         -0.7265    1.5821    1.2673 C.3       1 <0>         0.1579
      3 H1         -1.7754    1.2876    1.2334 H         1 <0>         0.0785
      4 C3         -0.6208    3.1081    1.3490 C.3       1 <0>        -0.1333
      5 C4         -1.2126    3.5861    2.6770 C.3       1 <0>        -0.1230
      6 C5         -0.4176    2.9840    3.8378 C.3       1 <0>        -0.1296
      7 C6         -0.5210    1.4565    3.7843 C.3       1 <0>         0.1298
      8 H2          0.1209    1.0177    4.5481 H         1 <0>         0.0823
      9 N1         -0.0895    0.9995    2.4562 N.am      1 <0>        -0.6068
     10 C7          0.8727    0.0641    2.3310 C.2       1 <0>         0.6997
     11 O1          1.2853   -0.2395    1.2289 O.2       1 <0>        -0.5112
     12 N2          1.3773   -0.5346    3.4280 N.am      1 <0>        -0.6758
     13 C8          2.4104   -1.3925    3.3125 C.2       1 <0>         0.4907
     14 O2          2.8857   -1.6255    2.2219 O.2       1 <0>        -0.3965
     15 C9          2.9746   -2.0619    4.5391 C.3       1 <0>         0.4574
     16 F1          4.0315   -2.9002    4.1684 F         1 <0>        -0.1447
     17 F2          3.4416   -1.0883    5.4286 F         1 <0>        -0.1622
     18 F3          1.9745   -2.8187    5.1590 F         1 <0>        -0.1617
     19 C10        -1.9707    1.0317    4.0268 C.3       1 <0>        -0.1688
     20 H3         -0.1310    0.0047   -0.0736 H         1 <0>         0.0742
     21 H4          1.0465    1.3318    0.0695 H         1 <0>         0.0728
     22 H5         -0.4479    1.5653   -0.8688 H         1 <0>         0.0508
     23 H6          0.4267    3.4039    1.2901 H         1 <0>         0.0698
     24 H7         -1.1727    3.5558    0.5226 H         1 <0>         0.0802
     25 H8         -2.2530    3.2685    2.7460 H         1 <0>         0.0697
     26 H9         -1.1608    4.6737    2.7269 H         1 <0>         0.0702
     27 H10        -0.8250    3.3433    4.7828 H         1 <0>         0.0816
     28 H11         0.6279    3.2809    3.7555 H         1 <0>         0.0701
     29 H12         0.9970   -0.3481    4.3006 H         1 <0>         0.4153
     30 H13        -2.0445   -0.0546    3.9758 H         1 <0>         0.0615
     31 H14        -2.2889    1.3716    5.0124 H         1 <0>         0.0751
     32 H15        -2.6117    1.4756    3.2650 H         1 <0>         0.0693
@<TRIPOS>BOND
     1    1    2 1
     2    1   20 1
     3    1   21 1
     4    1   22 1
     5    2    3 1
     6    2    9 1
     7    2    4 1
     8    4    5 1
     9    4   23 1
    10    4   24 1
    11    5    6 1
    12    5   25 1
    13    5   26 1
    14    6    7 1
    15    6   27 1
    16    6   28 1
    17    7    8 1
    18    7    9 1
    19    7   19 1
    20    9   10 am
    21   10   11 2
    22   10   12 am
    23   12   13 am
    24   12   29 1
    25   13   14 2
    26   13   15 1
    27   15   16 1
    28   15   17 1
    29   15   18 1
    30   19   30 1
    31   19   31 1
    32   19   32 1
