@<TRIPOS>MOLECULE
ZINC62762175
   36    38     0     0     0
SMALL
USER_CHARGES

@<TRIPOS>ATOM
      1 C1         -0.0435    1.3197   -0.6529 C.ar      1 <0>        -0.0577
      2 C2          1.1049    2.0518   -0.6738 C.ar      1 <0>        -0.1695
      3 C3          2.3401    1.4154   -0.4716 C.ar      1 <0>        -0.0629
      4 C4          3.5480    2.1385   -0.4855 C.ar      1 <0>        -0.0809
      5 C5          4.7114    1.4533   -0.2811 C.ar      1 <0>        -0.1622
      6 C6          4.6791    0.0768   -0.0668 C.ar      1 <0>         0.0995
      7 N1          3.5524   -0.5929   -0.0550 N.ar      1 <0>        -0.4228
      8 C7          2.3796    0.0172   -0.2478 C.ar      1 <0>         0.1051
      9 C8          1.1701   -0.7084   -0.2334 C.ar      1 <0>         0.2020
     10 C9         -0.0123   -0.0545   -0.4335 C.ar      1 <0>        -0.2465
     11 O1          1.1812   -2.0501   -0.0211 O.3       1 <0>        -0.2367
     12 C10        -0.0866   -2.6985    0.0981 C.3       1 <0>         0.1058
     13 H1         -0.7873   -2.0359    0.6062 H         1 <0>         0.0634
     14 C11        -0.6211   -3.0337   -1.2958 C.3       1 <0>        -0.1462
     15 C12         0.3624   -3.9638   -2.0090 C.3       1 <0>        -0.1112
     16 C13         0.5229   -5.2529   -1.2007 C.3       1 <0>        -0.1163
     17 C14         1.0573   -4.9177    0.1932 C.3       1 <0>        -0.0955
     18 C15         0.0738   -3.9876    0.9064 C.3       1 <0>        -0.1507
     19 H2         -0.8932   -4.4822    0.9973 H         1 <0>         0.0750
     20 C16         0.6003   -3.6574    2.2793 C.2       1 <0>         0.4934
     21 O2          0.1674   -4.2453    3.2558 O.co2     1 <0>        -0.7090
     22 O3          1.4590   -2.8024    2.4136 O.co2     1 <0>        -0.6706
     23 H3         -0.9922    1.8132   -0.8044 H         1 <0>         0.1222
     24 H4          1.0656    3.1174   -0.8456 H         1 <0>         0.1238
     25 H5          3.5543    3.2054   -0.6536 H         1 <0>         0.1350
     26 H6          5.6556    1.9776   -0.2860 H         1 <0>         0.1325
     27 H7          5.6069   -0.4523    0.0934 H         1 <0>         0.1552
     28 H8         -0.9371   -0.6122   -0.4217 H         1 <0>         0.1325
     29 H9         -1.5881   -3.5283   -1.2049 H         1 <0>         0.0731
     30 H10        -0.7354   -2.1154   -1.8717 H         1 <0>         0.0624
     31 H11        -0.0183   -4.2027   -3.0020 H         1 <0>         0.0538
     32 H12         1.3295   -3.4692   -2.0999 H         1 <0>         0.0663
     33 H13        -0.4442   -5.7475   -1.1098 H         1 <0>         0.0551
     34 H14         1.2235   -5.9155   -1.7088 H         1 <0>         0.0556
     35 H15         1.1716   -5.8361    0.7690 H         1 <0>         0.0558
     36 H16         2.0244   -4.4231    0.1023 H         1 <0>         0.0710
@<TRIPOS>BOND
     1    1   10 ar
     2    1    2 ar
     3    1   23 1
     4    2    3 ar
     5    2   24 1
     6    3    8 ar
     7    3    4 ar
     8    4    5 ar
     9    4   25 1
    10    5    6 ar
    11    5   26 1
    12    6    7 ar
    13    6   27 1
    14    7    8 ar
    15    8    9 ar
    16    9   10 ar
    17    9   11 1
    18   10   28 1
    19   11   12 1
    20   12   13 1
    21   12   18 1
    22   12   14 1
    23   14   15 1
    24   14   29 1
    25   14   30 1
    26   15   16 1
    27   15   31 1
    28   15   32 1
    29   16   17 1
    30   16   33 1
    31   16   34 1
    32   17   18 1
    33   17   35 1
    34   17   36 1
    35   18   19 1
    36   18   20 1
    37   20   21 2
    38   20   22 1
