@<TRIPOS>MOLECULE
ZINC37555561
   32    34     0     0     0
SMALL
USER_CHARGES

@<TRIPOS>ATOM
      1 C1         -0.0184    1.5028    0.0103 C.3       1 <0>        -0.1275
      2 C2          0.0021   -0.0041    0.0020 C.2       1 <0>         0.0260
      3 C3          0.0059   -0.7037   -1.2171 C.2       1 <0>        -0.2052
      4 C4          0.0242   -2.0531   -1.2301 C.2       1 <0>         0.1355
      5 N1          0.0393   -2.7611   -0.0657 N.pl3     1 <0>        -0.6254
      6 C5          0.0364   -2.1077    1.1431 C.2       1 <0>         0.5256
      7 C6          0.0225   -0.6931    1.1728 C.2       1 <0>        -0.1694
      8 N2          0.0506   -2.7938    2.2671 N.2       1 <0>        -1.0115
      9 S1          0.0718   -4.4492    2.2265 S.o2      1 <0>         2.6501
     10 O1         -1.1709   -4.8578    1.6717 O.2       1 <0>        -0.9899
     11 O2          1.3195   -4.8255    1.6600 O.2       1 <0>        -0.9604
     12 C7          0.0869   -5.0111    3.8964 C.2       1 <0>        -0.5942
     13 C8          1.1817   -5.2475    4.6541 C.2       1 <0>         0.2215
     14 N3          0.7840   -5.6599    5.8604 N.2       1 <0>        -0.4851
     15 C9         -0.5411   -5.6936    5.8941 C.2       1 <0>         0.2770
     16 N4         -1.0077   -5.2846    4.6718 N.pl3     1 <0>        -0.3051
     17 C10        -2.3493   -5.2191    4.4306 C.2       1 <0>         0.0635
     18 C11        -3.2373   -5.5523    5.3908 C.2       1 <0>        -0.1342
     19 C12        -2.7902   -5.9716    6.6546 C.2       1 <0>        -0.0713
     20 C13        -1.4554   -6.0493    6.9056 C.2       1 <0>        -0.0912
     21 Cl1         2.8290   -5.0485    4.1437 Cl        1 <0>         0.0401
     22 H1          1.0042    1.8801    0.0026 H         1 <0>         0.0891
     23 H2         -0.5455    1.8639   -0.8728 H         1 <0>         0.0802
     24 H3         -0.5286    1.8543    0.9071 H         1 <0>         0.0807
     25 H4         -0.0062   -0.1582   -2.1491 H         1 <0>         0.1576
     26 H5          0.0266   -2.5779   -2.1740 H         1 <0>         0.1783
     27 H6          0.0240   -0.1668    2.1160 H         1 <0>         0.1653
     28 H7         -2.7037   -4.8973    3.4625 H         1 <0>         0.1826
     29 H8         -4.2963   -5.4959    5.1866 H         1 <0>         0.1650
     30 H9         -3.5028   -6.2370    7.4216 H         1 <0>         0.1561
     31 H10        -1.1002   -6.3693    7.8740 H         1 <0>         0.1637
     32 H11         0.0517   -3.7307   -0.0903 H         1 <0>         0.4124
@<TRIPOS>BOND
     1    1    2 1
     2    1   22 1
     3    1   23 1
     4    1   24 1
     5    2    7 2
     6    2    3 1
     7    3    4 2
     8    3   25 1
     9    4    5 1
    10    4   26 1
    11    5    6 1
    12    5   32 1
    13    6    7 1
    14    6    8 2
    15    7   27 1
    16    8    9 1
    17    9   10 2
    18    9   11 2
    19    9   12 1
    20   12   16 1
    21   12   13 2
    22   13   14 1
    23   13   21 1
    24   14   15 2
    25   15   20 1
    26   15   16 1
    27   16   17 1
    28   17   18 2
    29   17   28 1
    30   18   19 1
    31   18   29 1
    32   19   20 2
    33   19   30 1
    34   20   31 1
