@<TRIPOS>MOLECULE
ZINC24585846
   38    41     0     0     0
SMALL
USER_CHARGES

@<TRIPOS>ATOM
      1 C1         -0.0112    1.4581    0.1492 C.3       1 <0>         0.0525
      2 N1          0.0073   -0.0066    0.1236 N.pl3     1 <0>        -0.4942
      3 C2         -1.1581   -0.6863    0.0619 C.2       1 <0>         0.5005
      4 O1         -2.3343   -0.0360    0.0237 O.3       1 <0>        -0.6090
      5 C3         -1.1100   -2.0964    0.0380 C.ar      1 <0>        -0.2197
      6 C4         -2.2775   -2.8703   -0.0260 C.ar      1 <0>        -0.0110
      7 C5         -2.1907   -4.2288   -0.0477 C.ar      1 <0>        -0.2091
      8 C6         -0.9425   -4.8698   -0.0062 C.ar      1 <0>        -0.0818
      9 C7          0.2280   -4.1315    0.0573 C.ar      1 <0>        -0.0683
     10 C8          0.1591   -2.7311    0.0800 C.ar      1 <0>         0.2120
     11 N2          1.2655   -1.9765    0.1405 N.2       1 <0>        -0.5513
     12 C9          1.1834   -0.6549    0.1561 C.2       1 <0>         0.5023
     13 S1          2.6283    0.2605    0.2275 S.2       1 <0>        -0.7055
     14 C10        -0.8764   -6.3491   -0.0300 C.2       1 <0>         0.5727
     15 O2          0.1970   -6.9076   -0.1425 O.2       1 <0>        -0.5076
     16 N3         -2.0067   -7.0759    0.0732 N.am      1 <0>        -0.5504
     17 C11        -3.3632   -6.5218    0.0874 C.3       1 <0>         0.0893
     18 C12        -4.2942   -7.7381    0.2188 C.3       1 <0>        -0.0895
     19 C13        -3.3615   -8.9272    0.2706 C.ar      1 <0>        -0.1398
     20 C14        -2.0567   -8.4686    0.1760 C.ar      1 <0>         0.1516
     21 C15        -1.0104   -9.3926    0.1971 C.ar      1 <0>        -0.1321
     22 C16        -1.2759  -10.7412    0.3063 C.ar      1 <0>        -0.0940
     23 C17        -2.5810  -11.1886    0.3958 C.ar      1 <0>        -0.1454
     24 C18        -3.6224  -10.2789    0.3840 C.ar      1 <0>        -0.0805
     25 H1          1.0111    1.8336    0.1944 H         1 <0>         0.1290
     26 H2         -0.4957    1.8312   -0.7531 H         1 <0>         0.0705
     27 H3         -0.5626    1.7992    1.0253 H         1 <0>         0.0705
     28 H4         -3.2441   -2.3895   -0.0577 H         1 <0>         0.1364
     29 H5         -3.0929   -4.8204   -0.0970 H         1 <0>         0.1573
     30 H6          1.1854   -4.6303    0.0889 H         1 <0>         0.1465
     31 H7         -3.4901   -5.8546    0.9400 H         1 <0>         0.1001
     32 H8         -3.5643   -5.9904   -0.8427 H         1 <0>         0.0983
     33 H9         -4.8781   -7.6726    1.1370 H         1 <0>         0.0927
     34 H10        -4.9524   -7.8085   -0.6472 H         1 <0>         0.0924
     35 H11         0.0113   -9.0497    0.1272 H         1 <0>         0.1400
     36 H12        -0.4616  -11.4505    0.3216 H         1 <0>         0.1268
     37 H13        -2.7864  -12.2455    0.4805 H         1 <0>         0.1244
     38 H14        -4.6425  -10.6269    0.4530 H         1 <0>         0.1238
@<TRIPOS>BOND
     1    1    2 1
     2    1   25 1
     3    1   26 1
     4    1   27 1
     5    2   12 1
     6    2    3 1
     7    3    4 1
     8    3    5 2
     9    5   10 ar
    10    5    6 ar
    11    6    7 ar
    12    6   28 1
    13    7    8 ar
    14    7   29 1
    15    8    9 ar
    16    8   14 1
    17    9   10 ar
    18    9   30 1
    19   10   11 2
    20   11   12 1
    21   12   13 2
    22   14   15 2
    23   14   16 am
    24   16   20 1
    25   16   17 1
    26   17   18 1
    27   17   31 1
    28   17   32 1
    29   18   19 1
    30   18   33 1
    31   18   34 1
    32   19   24 ar
    33   19   20 ar
    34   20   21 ar
    35   21   22 ar
    36   21   35 1
    37   22   23 ar
    38   22   36 1
    39   23   24 ar
    40   23   37 1
    41   24   38 1
