@<TRIPOS>MOLECULE
ZINC65689996
   48    50     0     0     0
SMALL
USER_CHARGES

@<TRIPOS>ATOM
      1 C1         -0.0251    1.5235    0.0133 C.3       1 <0>        -0.1458
      2 C2         -0.0024   -0.0063    0.0038 C.3       1 <0>         0.0718
      3 C3          0.7217   -0.4998   -1.2540 C.3       1 <0>         0.0821
      4 N1          0.8951   -1.9572   -1.1480 N.am      1 <0>        -0.6304
      5 C4          1.4813   -2.4958    0.0897 C.3       1 <0>         0.1082
      6 C5          0.7202   -1.9050    1.2820 C.3       1 <0>         0.0993
      7 O1          0.6890   -0.4808    1.1616 O.3       1 <0>        -0.3655
      8 C6         -0.7101   -2.4481    1.2952 C.3       1 <0>        -0.1742
      9 C7          1.4271   -2.2926    2.5824 C.3       1 <0>        -0.1377
     10 C8          0.5284   -2.7746   -2.1548 C.2       1 <0>         0.7102
     11 O2          0.7622   -3.9659   -2.0867 O.2       1 <0>        -0.5833
     12 N2         -0.0976   -2.2716   -3.2372 N.am      1 <0>        -0.7434
     13 C9         -0.5954   -3.1723   -4.2800 C.3       1 <0>         0.1779
     14 C10        -1.2494   -2.3645   -5.3712 C.ar      1 <0>        -0.1021
     15 C11        -2.5991   -2.0704   -5.2959 C.ar      1 <0>        -0.0927
     16 C12        -3.2038   -1.3312   -6.2918 C.ar      1 <0>        -0.1121
     17 C13        -2.4510   -0.8802   -7.3763 C.ar      1 <0>        -0.0221
     18 C14        -1.0904   -1.1801   -7.4464 C.ar      1 <0>        -0.0913
     19 C15        -0.4963   -1.9153   -6.4413 C.ar      1 <0>        -0.0925
     20 C16        -3.0933   -0.0874   -8.4481 C.2       1 <0>         0.1211
     21 C17        -2.4819    0.4108   -9.5637 C.2       1 <0>        -0.2486
     22 C18        -3.4431    1.0937  -10.3092 C.2       1 <0>         0.0500
     23 N3         -4.5892    1.0183   -9.6815 N.2       1 <0>        -0.2823
     24 N4         -4.4055    0.2759   -8.5080 N.pl3     1 <0>        -0.4735
     25 H1         -5.0891    0.0608   -7.8543 H         1 <0>         0.4379
     26 H2          0.9970    1.9021    0.0062 H         1 <0>         0.0675
     27 H3         -0.5524    1.8846   -0.8698 H         1 <0>         0.0734
     28 H4         -0.5361    1.8737    0.9101 H         1 <0>         0.0697
     29 H5         -1.0242   -0.3856    0.0090 H         1 <0>         0.0673
     30 H6          0.1267   -0.2642   -2.1364 H         1 <0>         0.0840
     31 H7          1.6968   -0.0186   -1.3289 H         1 <0>         0.0802
     32 H8          1.3893   -3.5818    0.0971 H         1 <0>         0.1033
     33 H9          2.5329   -2.2155    0.1501 H         1 <0>         0.0747
     34 H10        -0.6855   -3.5344    1.3825 H         1 <0>         0.0696
     35 H11        -1.2506   -2.0277    2.1432 H         1 <0>         0.0658
     36 H12        -1.2132   -2.1694    0.3693 H         1 <0>         0.0579
     37 H13         2.4451   -1.9031    2.5725 H         1 <0>         0.0673
     38 H14         0.8854   -1.8722    3.4297 H         1 <0>         0.0695
     39 H15         1.4545   -3.3786    2.6713 H         1 <0>         0.0757
     40 H16        -0.2186   -1.3133   -3.3258 H         1 <0>         0.3963
     41 H17         0.2362   -3.7402   -4.6970 H         1 <0>         0.0798
     42 H18        -1.3245   -3.8587   -3.8494 H         1 <0>         0.0770
     43 H19        -3.1809   -2.4204   -4.4559 H         1 <0>         0.1301
     44 H20        -4.2576   -1.1026   -6.2320 H         1 <0>         0.1218
     45 H21        -0.5025   -0.8341   -8.2837 H         1 <0>         0.1348
     46 H22         0.5579   -2.1441   -6.4920 H         1 <0>         0.1328
     47 H23        -1.4396    0.2963   -9.8225 H         1 <0>         0.1523
     48 H24        -3.2703    1.6004  -11.2472 H         1 <0>         0.1881
@<TRIPOS>BOND
     1    1    2 1
     2    1   26 1
     3    1   27 1
     4    1   28 1
     5    2    7 1
     6    2    3 1
     7    2   29 1
     8    3    4 1
     9    3   30 1
    10    3   31 1
    11    4    5 1
    12    4   10 am
    13    5    6 1
    14    5   32 1
    15    5   33 1
    16    6    7 1
    17    6    8 1
    18    6    9 1
    19    8   34 1
    20    8   35 1
    21    8   36 1
    22    9   37 1
    23    9   38 1
    24    9   39 1
    25   10   11 2
    26   10   12 am
    27   12   13 1
    28   12   40 1
    29   13   14 1
    30   13   41 1
    31   13   42 1
    32   14   19 ar
    33   14   15 ar
    34   15   16 ar
    35   15   43 1
    36   16   17 ar
    37   16   44 1
    38   17   18 ar
    39   17   20 1
    40   18   19 ar
    41   18   45 1
    42   19   46 1
    43   20   24 1
    44   20   21 2
    45   21   22 1
    46   21   47 1
    47   22   23 2
    48   22   48 1
    49   23   24 1
    50   24   25 1
