@<TRIPOS>MOLECULE
ZINC40445513
   36    38     0     0     0
SMALL
USER_CHARGES

@<TRIPOS>ATOM
      1 C1         -0.0184    1.5028    0.0103 C.3       1 <0>        -0.1108
      2 C2          0.0021   -0.0041    0.0020 C.2       1 <0>         0.2675
      3 C3         -1.1970   -0.7121    0.0039 C.2       1 <0>        -0.3263
      4 C4         -1.1598   -2.0932   -0.0038 C.2       1 <0>         0.4941
      5 N1          0.0547   -2.7164   -0.0130 N.pl3     1 <0>        -0.3649
      6 C5          1.2053   -1.9793   -0.0145 C.2       1 <0>         0.4871
      7 N2          1.1534   -0.6424   -0.0124 N.2       1 <0>        -0.5029
      8 N3          2.2200   -2.8368   -0.0236 N.2       1 <0>        -0.5356
      9 C6          1.7561   -4.0804   -0.0279 C.2       1 <0>         0.2622
     10 N4          0.4456   -4.0614   -0.0217 N.2       1 <0>        -0.3547
     11 N5         -2.3252   -2.8268   -0.0017 N.pl3     1 <0>        -0.7046
     12 C7         -3.6210   -2.1433    0.0087 C.3       1 <0>         0.2470
     13 H1         -3.5465   -1.2324    0.6027 H         1 <0>         0.1157
     14 C8         -4.0209   -1.7864   -1.4243 C.3       1 <0>        -0.1695
     15 C9         -4.6630   -3.0512    0.6097 C.2       1 <0>        -0.2424
     16 C10        -5.6293   -2.7767    1.5230 C.2       1 <0>         0.0974
     17 N6         -6.4161   -3.7730    1.8778 N.2       1 <0>        -0.5170
     18 C11        -6.2694   -4.9713    1.3702 C.2       1 <0>         0.0722
     19 S1         -4.9740   -4.7841    0.3121 S.3       1 <0>         0.1135
     20 C12        -7.0704   -6.2148    1.6588 C.3       1 <0>        -0.0706
     21 C13        -5.7944   -1.3965    2.1049 C.3       1 <0>        -0.0874
     22 H2          1.0042    1.8801    0.0026 H         1 <0>         0.0886
     23 H3         -0.5455    1.8639   -0.8728 H         1 <0>         0.0929
     24 H4         -0.5286    1.8543    0.9071 H         1 <0>         0.0928
     25 H5         -2.1421   -0.1894    0.0117 H         1 <0>         0.1670
     26 H6          2.3656   -4.9719   -0.0353 H         1 <0>         0.2317
     27 H7         -2.2882   -3.7960   -0.0071 H         1 <0>         0.4160
     28 H8         -4.0953   -2.6973   -2.0183 H         1 <0>         0.0665
     29 H9         -4.9849   -1.2779   -1.4166 H         1 <0>         0.0819
     30 H10        -3.2672   -1.1297   -1.8590 H         1 <0>         0.0759
     31 H11        -7.9125   -6.2728    0.9691 H         1 <0>         0.0941
     32 H12        -6.4366   -7.0926    1.5331 H         1 <0>         0.0887
     33 H13        -7.4416   -6.1783    2.6830 H         1 <0>         0.0962
     34 H14        -6.4829   -0.8212    1.4860 H         1 <0>         0.0818
     35 H15        -6.1931   -1.4739    3.1164 H         1 <0>         0.0801
     36 H16        -4.8265   -0.8960    2.1333 H         1 <0>         0.0756
@<TRIPOS>BOND
     1    1    2 1
     2    1   22 1
     3    1   23 1
     4    1   24 1
     5    2    7 2
     6    2    3 1
     7    3    4 2
     8    3   25 1
     9    4    5 1
    10    4   11 1
    11    5   10 1
    12    5    6 1
    13    6    7 1
    14    6    8 2
    15    8    9 1
    16    9   10 2
    17    9   26 1
    18   11   12 1
    19   11   27 1
    20   12   13 1
    21   12   14 1
    22   12   15 1
    23   14   28 1
    24   14   29 1
    25   14   30 1
    26   15   19 1
    27   15   16 2
    28   16   17 1
    29   16   21 1
    30   17   18 2
    31   18   19 1
    32   18   20 1
    33   20   31 1
    34   20   32 1
    35   20   33 1
    36   21   34 1
    37   21   35 1
    38   21   36 1
