@<TRIPOS>MOLECULE
ZINC01733971
   31    32     0     0     0
SMALL
USER_CHARGES
3-hydroxy-2-phenyl-3-(2-thienyl)butanoic acid
@<TRIPOS>ATOM
      1 C1          2.7554    5.0768    0.0030 C.3       1 <0>        -0.1321
      2 C2          2.6961    3.5480   -0.0046 C.3       1 <0>         0.2404
      3 C3          3.3982    3.0119    1.2163 C.2       1 <0>        -0.1075
      4 C4          4.7020    2.6758    1.3726 C.2       1 <0>        -0.1673
      5 C5          5.1293    2.1997    2.5979 C.2       1 <0>        -0.1466
      6 C6          4.2319    2.0831    3.6070 C.2       1 <0>        -0.2032
      7 S1          2.7302    2.6622    2.8346 S.3       1 <0>         0.0414
      8 C7          1.2350    3.0943    0.0069 C.3       1 <0>        -0.1282
      9 H1          0.7441    3.4725    0.9036 H         1 <0>         0.0831
     10 C8          0.5329    3.6304   -1.2141 C.ar      1 <0>        -0.0276
     11 C9          0.9833    3.2896   -2.4758 C.ar      1 <0>        -0.0957
     12 C10         0.3366    3.7779   -3.5957 C.ar      1 <0>        -0.1259
     13 C11        -0.7547    4.6145   -3.4540 C.ar      1 <0>        -0.1374
     14 C12        -1.2022    4.9590   -2.1923 C.ar      1 <0>        -0.1271
     15 C13        -0.5581    4.4673   -1.0723 C.ar      1 <0>        -0.1184
     16 C14         1.1765    1.5884   -0.0006 C.2       1 <0>         0.4782
     17 O1          2.1986    0.9442   -0.0139 O.co2     1 <0>        -0.6271
     18 O2          3.3396    3.0522   -1.1803 O.3       1 <0>        -0.5529
     19 H2          2.2646    5.4550    0.8998 H         1 <0>         0.0665
     20 H3          3.7964    5.4001   -0.0052 H         1 <0>         0.0618
     21 H4          2.2476    5.4646   -0.8801 H         1 <0>         0.0704
     22 H5          5.3967    2.7787    0.5521 H         1 <0>         0.1284
     23 H6          6.1628    1.9251    2.7491 H         1 <0>         0.1238
     24 H7          4.3862    1.7342    4.6174 H         1 <0>         0.1770
     25 H8          1.8384    2.6393   -2.5865 H         1 <0>         0.1283
     26 H9          0.6860    3.5084   -4.5815 H         1 <0>         0.1145
     27 H10        -1.2579    4.9986   -4.3290 H         1 <0>         0.1123
     28 H11        -2.0548    5.6127   -2.0815 H         1 <0>         0.1140
     29 H12        -0.9075    4.7368   -0.0866 H         1 <0>         0.1148
     30 H13         3.3397    2.0878   -1.2516 H         1 <0>         0.3926
     31 O3         -0.0110    0.9628    0.0073 O.co2     1 <0>        -0.7505
@<TRIPOS>BOND
     1    1    2 1
     2    1   19 1
     3    1   20 1
     4    1   21 1
     5    2    3 1
     6    2    8 1
     7    2   18 1
     8    3    7 1
     9    3    4 2
    10    4    5 1
    11    4   22 1
    12    5    6 2
    13    5   23 1
    14    6    7 1
    15    6   24 1
    16    8    9 1
    17    8   10 1
    18    8   16 1
    19   10   15 ar
    20   10   11 ar
    21   11   12 ar
    22   11   25 1
    23   12   13 ar
    24   12   26 1
    25   13   14 ar
    26   13   27 1
    27   14   15 ar
    28   14   28 1
    29   15   29 1
    30   16   17 2
    31   16   31 1
    32   18   30 1
