@<TRIPOS>MOLECULE
ZINC17023323
   47    49     0     0     0
SMALL
USER_CHARGES

@<TRIPOS>ATOM
      1 C1         -0.0045    1.5569   -0.3172 C.3       1 <0>        -0.1320
      2 C2         -0.1528    0.0450   -0.1356 C.3       1 <0>         0.1523
      3 H1          0.2301   -0.4683   -1.0176 H         1 <0>         0.0615
      4 C3         -1.6308   -0.3061    0.0618 C.3       1 <0>        -0.1290
      5 C4         -1.7586   -1.7973    0.3810 C.3       1 <0>        -0.1181
      6 C5         -1.0106   -2.1087    1.6794 C.3       1 <0>        -0.1279
      7 C6          0.4744   -1.7781    1.5004 C.3       1 <0>         0.1382
      8 H2          0.9939   -1.9039    2.4504 H         1 <0>         0.0850
      9 N1          0.6008   -0.3849    1.0503 N.am      1 <0>        -0.6020
     10 C7          1.3896    0.4830    1.7144 C.2       1 <0>         0.5431
     11 O1          1.4175    1.6503    1.3865 O.2       1 <0>        -0.5030
     12 C8          2.2370    0.0029    2.8644 C.3       1 <0>        -0.0816
     13 H3          1.7326   -0.8219    3.3679 H         1 <0>         0.0668
     14 C9          3.5912   -0.4741    2.3357 C.3       1 <0>        -0.1410
     15 H4          3.7300   -1.5253    2.5881 H         1 <0>         0.0567
     16 C10         4.7081    0.3551    2.9727 C.3       1 <0>        -0.0635
     17 C11         4.6657    0.1856    4.4927 C.3       1 <0>        -0.1123
     18 C12         3.3114    0.6626    5.0214 C.3       1 <0>        -0.1085
     19 C13         2.4511    1.1500    3.8539 C.3       1 <0>        -0.0633
     20 C14         3.1591    2.3077    3.1471 C.3       1 <0>        -0.1254
     21 C15         4.5133    1.8307    2.6185 C.3       1 <0>        -0.1169
     22 C16         3.6331   -0.3071    0.8385 C.2       1 <0>         0.4959
     23 O2          3.5090    0.8008    0.3450 O.co2     1 <0>        -0.6581
     24 O3          3.7910   -1.2800    0.1209 O.co2     1 <0>        -0.6982
     25 C17         1.0854   -2.7125    0.4541 C.3       1 <0>        -0.1782
     26 H5          1.0387    1.7977   -0.5218 H         1 <0>         0.0890
     27 H6         -0.6236    1.8849   -1.1522 H         1 <0>         0.0249
     28 H7         -0.3229    2.0652    0.5929 H         1 <0>         0.0630
     29 H8         -2.0366    0.2788    0.8873 H         1 <0>         0.0611
     30 H9         -2.1832   -0.0807   -0.8504 H         1 <0>         0.0654
     31 H10        -2.8113   -2.0548    0.4977 H         1 <0>         0.0564
     32 H11        -1.3303   -2.3811   -0.4337 H         1 <0>         0.0652
     33 H12        -1.4222   -1.5069    2.4897 H         1 <0>         0.0599
     34 H13        -1.1217   -3.1664    1.9185 H         1 <0>         0.0678
     35 H14         5.6729    0.0153    2.5961 H         1 <0>         0.0559
     36 H15         4.8045   -0.8656    4.7451 H         1 <0>         0.0521
     37 H16         5.4614    0.7764    4.9466 H         1 <0>         0.0528
     38 H17         2.8070   -0.1622    5.5249 H         1 <0>         0.0517
     39 H18         3.4640    1.4798    5.7263 H         1 <0>         0.0561
     40 H19         1.4863    1.4898    4.2305 H         1 <0>         0.0560
     41 H20         2.5462    2.6549    2.3154 H         1 <0>         0.1167
     42 H21         3.3116    3.1249    3.8521 H         1 <0>         0.0309
     43 H22         5.3091    2.4215    3.0723 H         1 <0>         0.0293
     44 H23         4.5436    1.9515    1.5356 H         1 <0>         0.1036
     45 H24         0.6511   -2.4979   -0.5224 H         1 <0>         0.0508
     46 H25         2.1636   -2.5577    0.4142 H         1 <0>         0.1029
     47 H26         0.8767   -3.7474    0.7251 H         1 <0>         0.0480
@<TRIPOS>BOND
     1    1    2 1
     2    1   26 1
     3    1   27 1
     4    1   28 1
     5    2    3 1
     6    2    9 1
     7    2    4 1
     8    4    5 1
     9    4   29 1
    10    4   30 1
    11    5    6 1
    12    5   31 1
    13    5   32 1
    14    6    7 1
    15    6   33 1
    16    6   34 1
    17    7    8 1
    18    7    9 1
    19    7   25 1
    20    9   10 am
    21   10   11 2
    22   10   12 1
    23   12   13 1
    24   12   19 1
    25   12   14 1
    26   14   15 1
    27   14   16 1
    28   14   22 1
    29   16   21 1
    30   16   17 1
    31   16   35 1
    32   17   18 1
    33   17   36 1
    34   17   37 1
    35   18   19 1
    36   18   38 1
    37   18   39 1
    38   19   20 1
    39   19   40 1
    40   20   21 1
    41   20   41 1
    42   20   42 1
    43   21   43 1
    44   21   44 1
    45   22   23 2
    46   22   24 1
    47   25   45 1
    48   25   46 1
    49   25   47 1
