@<TRIPOS>MOLECULE
ZINC08559291
   38    40     0     0     0
SMALL
USER_CHARGES

@<TRIPOS>ATOM
      1 C1          0.8586   -0.8547   -0.9040 C.3       1 <0>        -0.1478
      2 C2         -0.0069    0.0201    0.0053 C.3       1 <0>        -0.0808
      3 C3         -1.4183   -0.5079    0.0151 C.ar      1 <0>        -0.1034
      4 C4         -2.3323   -0.0511   -0.9166 C.ar      1 <0>        -0.0987
      5 C5         -3.6266   -0.5331   -0.9102 C.ar      1 <0>        -0.1201
      6 C6         -4.0096   -1.4778    0.0329 C.ar      1 <0>         0.1479
      7 C7         -3.0891   -1.9348    0.9669 C.ar      1 <0>        -0.1382
      8 C8         -1.7951   -1.4525    0.9522 C.ar      1 <0>        -0.0985
      9 N1         -5.3202   -1.9677    0.0423 N.am      1 <0>        -0.6569
     10 C9         -5.9970   -2.1041   -1.1152 C.2       1 <0>         0.5249
     11 O1         -5.4399   -1.8936   -2.1718 O.2       1 <0>        -0.5053
     12 C10        -7.4459   -2.5182   -1.0966 C.3       1 <0>         0.1598
     13 H1         -8.0305   -1.7873   -0.5380 H         1 <0>         0.1148
     14 C11        -7.9747   -2.6163   -2.5320 C.3       1 <0>        -0.1537
     15 C12        -9.2366   -3.4285   -2.5916 C.2       1 <0>         0.4509
     16 O2        -10.1696   -3.1066   -3.5084 O.3       1 <0>        -0.6487
     17 N2         -9.4652   -4.4326   -1.7926 N.2       1 <0>        -0.6008
     18 C13        -8.5440   -4.7241   -0.8307 C.2       1 <0>         0.5366
     19 N3         -7.5753   -3.8347   -0.4734 N.pl3     1 <0>        -0.4382
     20 N4         -6.8230   -4.4422    0.5264 N.2       1 <0>        -0.3000
     21 C14        -7.3447   -5.6295    0.7237 C.2       1 <0>         0.1480
     22 N5         -8.3838   -5.7988   -0.1002 N.2       1 <0>        -0.5276
     23 C15        -6.8479   -6.6451    1.7201 C.3       1 <0>         0.5787
     24 F1         -7.7166   -6.6869    2.8159 F         1 <0>        -0.1656
     25 F2         -6.7986   -7.9058    1.1158 F         1 <0>        -0.1604
     26 F3         -5.5674   -6.2853    2.1537 F         1 <0>        -0.1657
     27 H2          1.8794   -0.4727   -0.9111 H         1 <0>         0.0553
     28 H3          0.8565   -1.8791   -0.5317 H         1 <0>         0.0555
     29 H4          0.4563   -0.8353   -1.9168 H         1 <0>         0.0558
     30 H5          0.3954    0.0008    1.0181 H         1 <0>         0.0694
     31 H6         -0.0048    1.0446   -0.3670 H         1 <0>         0.0694
     32 H7         -2.0339    0.6835   -1.6498 H         1 <0>         0.1230
     33 H8         -4.3402   -0.1754   -1.6377 H         1 <0>         0.1341
     34 H9         -3.3840   -2.6692    1.7019 H         1 <0>         0.1280
     35 H10        -1.0776   -1.8105    1.6757 H         1 <0>         0.1238
     36 H11        -5.7417   -2.2092    0.8819 H         1 <0>         0.4187
     37 H12        -8.1775   -1.6132   -2.9073 H         1 <0>         0.1126
     38 H13        -7.2178   -3.0856   -3.1603 H         1 <0>         0.1034
@<TRIPOS>BOND
     1    1    2 1
     2    1   27 1
     3    1   28 1
     4    1   29 1
     5    2    3 1
     6    2   30 1
     7    2   31 1
     8    3    8 ar
     9    3    4 ar
    10    4    5 ar
    11    4   32 1
    12    5    6 ar
    13    5   33 1
    14    6    7 ar
    15    6    9 1
    16    7    8 ar
    17    7   34 1
    18    8   35 1
    19    9   10 am
    20    9   36 1
    21   10   11 2
    22   10   12 1
    23   12   13 1
    24   12   19 1
    25   12   14 1
    26   14   15 1
    27   14   37 1
    28   14   38 1
    29   15   16 1
    30   15   17 2
    31   17   18 1
    32   18   22 2
    33   18   19 1
    34   19   20 1
    35   20   21 2
    36   21   22 1
    37   21   23 1
    38   23   24 1
    39   23   25 1
    40   23   26 1
