@<TRIPOS>MOLECULE
ZINC64845900
   44    46     0     0     0
SMALL
USER_CHARGES

@<TRIPOS>ATOM
      1 C1         -1.2622    1.6135    0.3021 C.3       1 <0>        -0.0879
      2 C2         -1.1104    0.1167    0.3905 C.ar      1 <0>        -0.2047
      3 C3         -1.7391   -0.6963   -0.5346 C.ar      1 <0>        -0.0769
      4 C4         -1.6022   -2.0683   -0.4565 C.ar      1 <0>        -0.1802
      5 C5         -0.8317   -2.6314    0.5529 C.ar      1 <0>         0.2816
      6 C6         -0.2015   -1.8118    1.4806 C.ar      1 <0>        -0.2635
      7 C7         -0.3381   -0.4403    1.3933 C.ar      1 <0>        -0.0638
      8 N1         -0.6914   -4.0187    0.6352 N.2       1 <0>        -1.0778
      9 S1          0.2275   -4.6880    1.8393 S.o2      1 <0>         2.6098
     10 O1          1.5697   -4.2909    1.5943 O.2       1 <0>        -1.0158
     11 O2         -0.4389   -4.4070    3.0625 O.2       1 <0>        -1.0295
     12 C8          0.1725   -6.4362    1.6259 C.2       1 <0>        -0.6351
     13 C9         -0.7066   -7.2094    2.3011 C.2       1 <0>        -0.0488
     14 S2         -0.3165   -8.8422    1.7045 S.3       1 <0>         0.1745
     15 C10         0.9267   -8.4550    0.6435 C.2       1 <0>        -0.2025
     16 C11         1.0313   -7.0982    0.7453 C.2       1 <0>        -0.0117
     17 C12         2.0275   -6.3517   -0.0488 C.2       1 <0>         0.1450
     18 C13         3.3732   -6.5645   -0.0554 C.2       1 <0>        -0.2457
     19 C14         3.9524   -5.6456   -0.9404 C.2       1 <0>         0.0966
     20 N2          3.0018   -4.9096   -1.4472 N.2       1 <0>        -0.3149
     21 O3          1.7690   -5.3421   -0.9012 O.3       1 <0>        -0.0328
     22 C15         5.4218   -5.5273   -1.2531 C.3       1 <0>        -0.0786
     23 C16         4.1095   -7.6050    0.7485 C.3       1 <0>        -0.0748
     24 C17         1.7339   -9.3873   -0.2226 C.3       1 <0>        -0.0678
     25 C18        -1.7516   -6.7954    3.3050 C.3       1 <0>        -0.1115
     26 H1         -0.4728    2.0221   -0.3288 H         1 <0>         0.0482
     27 H2         -2.2336    1.8553   -0.1290 H         1 <0>         0.0497
     28 H3         -1.1898    2.0456    1.3002 H         1 <0>         0.0486
     29 H4         -2.3383   -0.2578   -1.3190 H         1 <0>         0.1023
     30 H5         -2.0938   -2.7027   -1.1792 H         1 <0>         0.1101
     31 H6          0.3979   -2.2464    2.2669 H         1 <0>         0.0929
     32 H7          0.1552    0.1977    2.1116 H         1 <0>         0.0985
     33 H8          5.6664   -6.1709   -2.0981 H         1 <0>         0.0824
     34 H9          5.6579   -4.4931   -1.5038 H         1 <0>         0.0783
     35 H10         6.0040   -5.8323   -0.3835 H         1 <0>         0.0816
     36 H11         4.2653   -8.4936    0.1367 H         1 <0>         0.0636
     37 H12         5.0741   -7.2063    1.0623 H         1 <0>         0.0653
     38 H13         3.5215   -7.8679    1.6279 H         1 <0>         0.0621
     39 H14         1.1015  -10.2084   -0.5603 H         1 <0>         0.0747
     40 H15         2.1142   -8.8425   -1.0868 H         1 <0>         0.0785
     41 H16         2.5698   -9.7853    0.3526 H         1 <0>         0.0813
     42 H17        -2.6870   -6.5810    2.7883 H         1 <0>         0.0911
     43 H18        -1.9083   -7.6028    4.0203 H         1 <0>         0.0758
     44 H19        -1.4151   -5.9029    3.8326 H         1 <0>         0.1319
@<TRIPOS>BOND
     1    1    2 1
     2    1   26 1
     3    1   27 1
     4    1   28 1
     5    2    7 ar
     6    2    3 ar
     7    3    4 ar
     8    3   29 1
     9    4    5 ar
    10    4   30 1
    11    5    6 ar
    12    5    8 1
    13    6    7 ar
    14    6   31 1
    15    7   32 1
    16    8    9 1
    17    9   10 2
    18    9   11 2
    19    9   12 1
    20   12   16 1
    21   12   13 2
    22   13   14 1
    23   13   25 1
    24   14   15 1
    25   15   16 2
    26   15   24 1
    27   16   17 1
    28   17   21 1
    29   17   18 2
    30   18   19 1
    31   18   23 1
    32   19   20 2
    33   19   22 1
    34   20   21 1
    35   22   33 1
    36   22   34 1
    37   22   35 1
    38   23   36 1
    39   23   37 1
    40   23   38 1
    41   24   39 1
    42   24   40 1
    43   24   41 1
    44   25   42 1
    45   25   43 1
    46   25   44 1
