@<TRIPOS>MOLECULE
ZINC40000449
   56    60     0     0     0
SMALL
USER_CHARGES

@<TRIPOS>ATOM
      1 C1         -0.6165    1.2412    1.4127 C.3       1 <0>        -0.1376
      2 C2         -0.5588   -0.2604    1.1251 C.3       1 <0>        -0.1140
      3 S1          0.5864   -0.5696   -0.2473 S.3       1 <0>         0.0278
      4 C3          0.5422   -2.3190   -0.4535 C.2       1 <0>        -0.0273
      5 N1         -0.1506   -3.2374    0.2051 N.2       1 <0>        -0.2494
      6 N2         -0.0644   -4.4644   -0.0737 N.2       1 <0>        -0.3102
      7 C4          0.7224   -4.9104   -1.0402 C.2       1 <0>         0.3260
      8 S2          1.4143   -3.3632   -1.6175 S.3       1 <0>         0.0831
      9 N3          0.9437   -6.2087   -1.4842 N.am      1 <0>        -0.4967
     10 C5          0.3143   -7.4229   -0.9514 C.3       1 <0>         0.2733
     11 H1          0.5665   -7.5445    0.1020 H         1 <0>         0.0923
     12 C6          0.8730   -8.5735   -1.7558 C.2       1 <0>        -0.4819
     13 C7          1.7351   -8.0396   -2.6535 C.2       1 <0>         0.2765
     14 C8          1.7684   -6.5744   -2.4823 C.2       1 <0>         0.5135
     15 O1          2.4437   -5.8103   -3.1440 O.2       1 <0>        -0.4842
     16 O2          2.4494   -8.7388   -3.5662 O.3       1 <0>        -0.6298
     17 C9          0.5452   -9.9934   -1.5955 C.2       1 <0>         0.5437
     18 O3         -0.0338  -10.5892   -2.4864 O.2       1 <0>        -0.4366
     19 C10         0.9149  -10.6977   -0.3603 C.2       1 <0>        -0.0060
     20 C11         0.7353  -12.0275   -0.1329 C.2       1 <0>        -0.1507
     21 C12         1.2455  -12.2801    1.2132 C.ar      1 <0>        -0.1387
     22 C13         1.3471  -13.4177    2.0187 C.ar      1 <0>        -0.0650
     23 C14         1.8901  -13.3160    3.2682 C.ar      1 <0>        -0.1435
     24 C15         2.3405  -12.0911    3.7420 C.ar      1 <0>        -0.0937
     25 C16         2.2489  -10.9574    2.9636 C.ar      1 <0>        -0.1081
     26 C17         1.7011  -11.0356    1.6887 C.ar      1 <0>         0.0618
     27 O4          1.4892  -10.1254    0.7180 O.3       1 <0>        -0.1660
     28 C18        -1.1813   -7.3484   -1.1206 C.ar      1 <0>        -0.1094
     29 C19        -1.7200   -6.9407   -2.3270 C.ar      1 <0>        -0.0510
     30 C20        -3.0906   -6.8711   -2.4844 C.ar      1 <0>        -0.1484
     31 C21        -3.9269   -7.2111   -1.4310 C.ar      1 <0>         0.1251
     32 C22        -3.3839   -7.6203   -0.2216 C.ar      1 <0>        -0.2063
     33 C23        -2.0126   -7.6932   -0.0709 C.ar      1 <0>        -0.0574
     34 O5         -5.2756   -7.1431   -1.5832 O.3       1 <0>        -0.3138
     35 C24        -6.0749   -7.5080   -0.4563 C.3       1 <0>         0.0861
     36 C25        -7.5335   -7.3716   -0.8098 C.2       1 <0>        -0.1521
     37 C26        -8.3787   -8.3163   -0.4793 C.2       1 <0>        -0.1754
     38 H2          0.3777    1.5981    1.6817 H         1 <0>         0.0666
     39 H3         -0.9636    1.7684    0.5241 H         1 <0>         0.0667
     40 H4         -1.3046    1.4270    2.2374 H         1 <0>         0.0787
     41 H5         -0.2117   -0.7875    2.0137 H         1 <0>         0.0951
     42 H6         -1.5530   -0.6172    0.8561 H         1 <0>         0.0952
     43 H7          0.3028  -12.7495   -0.8097 H         1 <0>         0.1656
     44 H8          0.9976  -14.3727    1.6552 H         1 <0>         0.1269
     45 H9          1.9692  -14.1943    3.8917 H         1 <0>         0.1269
     46 H10         2.7672  -12.0259    4.7320 H         1 <0>         0.1325
     47 H11         2.6024  -10.0102    3.3435 H         1 <0>         0.1325
     48 H12        -1.0686   -6.6761   -3.1468 H         1 <0>         0.1202
     49 H13        -3.5109   -6.5520   -3.4267 H         1 <0>         0.1272
     50 H14        -4.0328   -7.8855    0.6000 H         1 <0>         0.1243
     51 H15        -1.5895   -8.0158    0.8689 H         1 <0>         0.1238
     52 H16        -5.8631   -8.5409   -0.1799 H         1 <0>         0.0667
     53 H17        -5.8414   -6.8522    0.3824 H         1 <0>         0.0710
     54 H18        -7.8820   -6.4949   -1.3355 H         1 <0>         0.1186
     55 H19        -8.0302   -9.1930    0.0465 H         1 <0>         0.0995
     56 H20        -9.4240   -8.2186   -0.7326 H         1 <0>         0.1063
@<TRIPOS>BOND
     1    1    2 1
     2    1   38 1
     3    1   39 1
     4    1   40 1
     5    2    3 1
     6    2   41 1
     7    2   42 1
     8    3    4 1
     9    4    8 1
    10    4    5 2
    11    5    6 1
    12    6    7 2
    13    7    8 1
    14    7    9 1
    15    9   14 am
    16    9   10 1
    17   10   11 1
    18   10   12 1
    19   10   28 1
    20   12   13 2
    21   12   17 1
    22   13   14 1
    23   13   16 1
    24   14   15 2
    25   17   18 2
    26   17   19 1
    27   19   27 1
    28   19   20 2
    29   20   21 1
    30   20   43 1
    31   21   26 ar
    32   21   22 ar
    33   22   23 ar
    34   22   44 1
    35   23   24 ar
    36   23   45 1
    37   24   25 ar
    38   24   46 1
    39   25   26 ar
    40   25   47 1
    41   26   27 1
    42   28   33 ar
    43   28   29 ar
    44   29   30 ar
    45   29   48 1
    46   30   31 ar
    47   30   49 1
    48   31   32 ar
    49   31   34 1
    50   32   33 ar
    51   32   50 1
    52   33   51 1
    53   34   35 1
    54   35   36 1
    55   35   52 1
    56   35   53 1
    57   36   37 2
    58   36   54 1
    59   37   55 1
    60   37   56 1
