@<TRIPOS>MOLECULE
ZINC39667793
   40    42     0     0     0
SMALL
USER_CHARGES

@<TRIPOS>ATOM
      1 C1         -0.0184    1.5028    0.0103 C.3       1 <0>        -0.1389
      2 C2          0.0021   -0.0041    0.0020 C.2       1 <0>         0.1146
      3 C3          0.0061   -0.6913   -1.1499 C.2       1 <0>        -0.3477
      4 C4          0.0265   -2.1674   -1.0686 C.2       1 <0>         0.2836
      5 N1          0.0301   -2.8951   -2.1601 N.2       1 <0>        -0.5588
      6 C5          0.0156   -2.3368   -3.3603 C.2       1 <0>         0.4616
      7 N2         -0.0025   -1.0400   -3.5541 N.2       1 <0>        -0.6264
      8 C6         -0.0083   -0.1578   -2.5494 C.2       1 <0>         0.5638
      9 O1         -0.0256    1.0422   -2.7654 O.2       1 <0>        -0.4704
     10 C7          0.0209   -3.2390   -4.5674 C.3       1 <0>        -0.0661
     11 S1         -0.0013   -2.2313   -6.0756 S.3       1 <0>         0.1258
     12 C8          0.0072   -3.4159   -7.3800 C.2       1 <0>         0.1977
     13 N3          0.0198   -4.7245   -7.2472 N.2       1 <0>        -0.3412
     14 N4          0.0228   -5.2934   -8.3985 N.2       1 <0>        -0.0347
     15 N5          0.0125   -4.4083   -9.3356 N.2       1 <0>        -0.0878
     16 N6         -0.0040   -3.1506   -8.7076 N.pl3     1 <0>        -0.3574
     17 C9         -0.0259   -1.8350   -9.3517 C.3       1 <0>         0.1215
     18 C10         1.4088   -1.3570   -9.5841 C.3       1 <0>        -0.1112
     19 C11         1.3880   -0.0429  -10.3675 C.3       1 <0>        -0.1447
     20 C12         2.0975   -1.1362   -8.2358 C.3       1 <0>        -0.1593
     21 S2          0.0403   -2.5232    0.6703 S.3       1 <0>         0.0719
     22 C13         0.0250   -0.7926    1.2917 C.3       1 <0>        -0.1499
     23 H1          0.9254   -0.5750    1.8662 H         1 <0>         0.1623
     24 C14        -1.2122   -0.5255    2.1096 C.2       1 <0>         0.5244
     25 O2         -2.1715   -1.2734    2.0260 O.co2     1 <0>        -0.6395
     26 O3         -1.2539    0.4385    2.8549 O.co2     1 <0>        -0.6473
     27 H2          1.0042    1.8801    0.0026 H         1 <0>         0.0982
     28 H3         -0.5455    1.8639   -0.8728 H         1 <0>         0.1001
     29 H4         -0.5286    1.8543    0.9071 H         1 <0>         0.1012
     30 H5          0.9194   -3.8560   -4.5560 H         1 <0>         0.1367
     31 H6         -0.8604   -3.8800   -4.5458 H         1 <0>         0.1365
     32 H7         -0.5442   -1.9072  -10.3079 H         1 <0>         0.1100
     33 H8         -0.5460   -1.1245   -8.7092 H         1 <0>         0.1096
     34 H9          1.9551   -2.1100  -10.1522 H         1 <0>         0.0808
     35 H10         0.8417    0.7101   -9.7994 H         1 <0>         0.0639
     36 H11         2.4101    0.2976  -10.5330 H         1 <0>         0.0661
     37 H12         0.8974   -0.2002  -11.3280 H         1 <0>         0.0596
     38 H13         2.1123   -2.0724   -7.6778 H         1 <0>         0.0560
     39 H14         3.1196   -0.7957   -8.4014 H         1 <0>         0.0640
     40 H15         1.5512   -0.3832   -7.6678 H         1 <0>         0.0710
@<TRIPOS>BOND
     1    1    2 1
     2    1   27 1
     3    1   28 1
     4    1   29 1
     5    2   22 1
     6    2    3 2
     7    3    8 1
     8    3    4 1
     9    4    5 2
    10    4   21 1
    11    5    6 1
    12    6    7 2
    13    6   10 1
    14    7    8 1
    15    8    9 2
    16   10   11 1
    17   10   30 1
    18   10   31 1
    19   11   12 1
    20   12   16 1
    21   12   13 2
    22   13   14 1
    23   14   15 2
    24   15   16 1
    25   16   17 1
    26   17   18 1
    27   17   32 1
    28   17   33 1
    29   18   19 1
    30   18   20 1
    31   18   34 1
    32   19   35 1
    33   19   36 1
    34   19   37 1
    35   20   38 1
    36   20   39 1
    37   20   40 1
    38   21   22 1
    39   22   23 1
    40   22   24 1
    41   24   25 2
    42   24   26 1
