@<TRIPOS>MOLECULE
ZINC62052865
   39    40     0     0     0
SMALL
USER_CHARGES

@<TRIPOS>ATOM
      1 C1         -0.0184    1.5028    0.0103 C.3       1 <0>        -0.1040
      2 C2          0.0021   -0.0041    0.0020 C.ar      1 <0>         0.1258
      3 C3          0.0055   -0.6806   -1.2034 C.ar      1 <0>        -0.1758
      4 C4          0.0244   -2.0667   -1.1999 C.ar      1 <0>        -0.0548
      5 C5          0.0391   -2.7236    0.0213 C.ar      1 <0>        -0.1570
      6 C6          0.0345   -1.9800    1.1859 C.ar      1 <0>         0.1239
      7 N1          0.0219   -0.6618    1.1446 N.ar      1 <0>        -0.4859
      8 C7          0.0594   -4.2294    0.0775 C.3       1 <0>         0.1660
      9 N2          1.4470   -4.6990    0.0890 N.am      1 <0>        -0.7391
     10 C8          1.7110   -6.0198    0.1372 C.2       1 <0>         0.5207
     11 O1          0.7999   -6.8195    0.1712 O.2       1 <0>        -0.5090
     12 C9          3.1384   -6.5029    0.1490 C.3       1 <0>        -0.0804
     13 H1          3.6513   -6.0998    1.0222 H         1 <0>         0.0992
     14 C10         3.8472   -6.0305   -1.1220 C.3       1 <0>        -0.1088
     15 C11         5.2964   -6.5210   -1.1100 C.3       1 <0>        -0.1135
     16 C12         5.3170   -8.0498   -1.0529 C.3       1 <0>        -0.1189
     17 C13         4.6082   -8.5222    0.2180 C.3       1 <0>        -0.0988
     18 C14         3.1590   -8.0317    0.2061 C.3       1 <0>        -0.1352
     19 H2          2.6461   -8.4349   -0.6672 H         1 <0>         0.0640
     20 C15         2.4608   -8.4971    1.4579 C.2       1 <0>         0.5117
     21 O2          1.7332   -9.4747    1.4226 O.co2     1 <0>        -0.6968
     22 O3          2.6236   -7.8959    2.5061 O.co2     1 <0>        -0.7082
     23 H3          1.0042    1.8801    0.0026 H         1 <0>         0.0777
     24 H4         -0.5455    1.8639   -0.8728 H         1 <0>         0.0736
     25 H5         -0.5286    1.8543    0.9071 H         1 <0>         0.0767
     26 H6         -0.0066   -0.1362   -2.1360 H         1 <0>         0.1343
     27 H7          0.0272   -2.6219   -2.1263 H         1 <0>         0.1363
     28 H8          0.0459   -2.4840    2.1410 H         1 <0>         0.1598
     29 H9         -0.4456   -4.5660    0.9830 H         1 <0>         0.0775
     30 H10        -0.4535   -4.6325   -0.7957 H         1 <0>         0.0736
     31 H11         2.1757   -4.0594    0.0618 H         1 <0>         0.3947
     32 H12         3.3344   -6.4336   -1.9952 H         1 <0>         0.0618
     33 H13         3.8326   -4.9413   -1.1627 H         1 <0>         0.0567
     34 H14         5.8014   -6.1844   -2.0155 H         1 <0>         0.0571
     35 H15         5.8093   -6.1178   -0.2368 H         1 <0>         0.0623
     36 H16         4.8041   -8.4529   -1.9262 H         1 <0>         0.0578
     37 H17         6.3494   -8.3992   -1.0444 H         1 <0>         0.0556
     38 H18         4.6228   -9.6113    0.2587 H         1 <0>         0.0590
     39 H19         5.1210   -8.1191    1.0913 H         1 <0>         0.0605
@<TRIPOS>BOND
     1    1    2 1
     2    1   23 1
     3    1   24 1
     4    1   25 1
     5    2    7 ar
     6    2    3 ar
     7    3    4 ar
     8    3   26 1
     9    4    5 ar
    10    4   27 1
    11    5    6 ar
    12    5    8 1
    13    6    7 ar
    14    6   28 1
    15    8    9 1
    16    8   29 1
    17    8   30 1
    18    9   10 am
    19    9   31 1
    20   10   11 2
    21   10   12 1
    22   12   13 1
    23   12   18 1
    24   12   14 1
    25   14   15 1
    26   14   32 1
    27   14   33 1
    28   15   16 1
    29   15   34 1
    30   15   35 1
    31   16   17 1
    32   16   36 1
    33   16   37 1
    34   17   18 1
    35   17   38 1
    36   17   39 1
    37   18   19 1
    38   18   20 1
    39   20   21 2
    40   20   22 1
