@<TRIPOS>MOLECULE
ZINC20615023
   46    47     0     0     0
SMALL
USER_CHARGES
5-[[(1S)-1-(4-tert-butylphenyl)ethyl]carbamoyl]-1-methyl-pyrazole-4-carboxylic acid
@<TRIPOS>ATOM
      1 C1         -3.8477    2.9645   -1.5576 C.3       1 <0>        -0.1545
      2 C2         -3.6125    2.5498   -0.1038 C.3       1 <0>         0.1845
      3 H1         -3.4196    3.4272    0.5310 H         1 <0>         0.0998
      4 C3         -4.8187    1.8049    0.4075 C.ar      1 <0>        -0.0844
      5 C4         -4.9953    0.4720    0.0865 C.ar      1 <0>        -0.1103
      6 C5         -6.0992   -0.2125    0.5595 C.ar      1 <0>        -0.1172
      7 C6         -7.0317    0.4386    1.3453 C.ar      1 <0>        -0.0731
      8 C7         -6.8580    1.7730    1.6616 C.ar      1 <0>        -0.1114
      9 C8         -5.7514    2.4561    1.1929 C.ar      1 <0>        -0.1024
     10 C9         -8.2378   -0.3062    1.8566 C.3       1 <0>        -0.0288
     11 C10        -9.5103    0.3655    1.3366 C.3       1 <0>        -0.1386
     12 C11        -8.1887   -1.7546    1.3659 C.3       1 <0>        -0.1458
     13 C12        -8.2390   -0.2858    3.3865 C.3       1 <0>        -0.1414
     14 N1         -2.4345    1.6822   -0.0279 N.am      1 <0>        -0.7271
     15 C13        -1.2036    2.2235    0.0628 C.2       1 <0>         0.6189
     16 O1         -1.0758    3.4273    0.1767 O.2       1 <0>        -0.5176
     17 C14        -0.0116    1.3558    0.0240 C.2       1 <0>         0.0510
     18 C15         0.7308    0.9165    1.1195 C.2       1 <0>        -0.2034
     19 C16         1.7765    0.1208    0.6201 C.2       1 <0>         0.0824
     20 N2          1.6790    0.0781   -0.6829 N.2       1 <0>        -0.3026
     21 N3          0.5749    0.8376   -1.0862 N.pl3     1 <0>        -0.3630
     22 C17         0.1289    1.0389   -2.4671 C.3       1 <0>         0.0990
     23 C18         0.4680    1.2290    2.5382 C.2       1 <0>         0.5165
     24 O2         -0.4741    1.9336    2.8405 O.co2     1 <0>        -0.6246
     25 O3          1.2732    0.7327    3.4975 O.co2     1 <0>        -0.7568
     26 H2         -2.9673    3.5082   -1.9308 H         1 <0>         0.0627
     27 H3         -4.7323    3.6159   -1.6145 H         1 <0>         0.0668
     28 H4         -4.0126    2.0675   -2.1726 H         1 <0>         0.0581
     29 H5         -4.2688   -0.0356   -0.5308 H         1 <0>         0.1189
     30 H6         -6.2350   -1.2549    0.3121 H         1 <0>         0.1257
     31 H7         -7.5868    2.2818    2.2752 H         1 <0>         0.1205
     32 H8         -5.6158    3.4987    1.4401 H         1 <0>         0.1240
     33 H9        -10.3907   -0.1782    1.7099 H         1 <0>         0.0568
     34 H10        -9.5094    0.3508    0.2367 H         1 <0>         0.0556
     35 H11        -9.5457    1.4068    1.6894 H         1 <0>         0.0571
     36 H12        -9.0691   -2.2982    1.7392 H         1 <0>         0.0567
     37 H13        -7.2738   -2.2376    1.7398 H         1 <0>         0.0605
     38 H14        -8.1878   -1.7693    0.2660 H         1 <0>         0.0582
     39 H15        -9.1194   -0.8295    3.7597 H         1 <0>         0.0569
     40 H16        -8.2743    0.7555    3.7393 H         1 <0>         0.0577
     41 H17        -7.3241   -0.7688    3.7603 H         1 <0>         0.0591
     42 H18        -2.5546    0.5889   -0.0449 H         1 <0>         0.4163
     43 H19         2.5329   -0.3721    1.2128 H         1 <0>         0.1932
     44 H20         0.7988    0.4976   -3.1514 H         1 <0>         0.0962
     45 H21         0.1498    2.1124   -2.7064 H         1 <0>         0.0752
     46 H22        -0.8968    0.6579   -2.5804 H         1 <0>         0.0747
@<TRIPOS>BOND
     1    1    2 1
     2    1   26 1
     3    1   27 1
     4    1   28 1
     5    2    3 1
     6    2    4 1
     7    2   14 1
     8    4    9 ar
     9    4    5 ar
    10    5    6 ar
    11    5   29 1
    12    6    7 ar
    13    6   30 1
    14    7    8 ar
    15    7   10 1
    16    8    9 ar
    17    8   31 1
    18    9   32 1
    19   10   11 1
    20   10   12 1
    21   10   13 1
    22   11   33 1
    23   11   34 1
    24   11   35 1
    25   12   36 1
    26   12   37 1
    27   12   38 1
    28   13   39 1
    29   13   40 1
    30   13   41 1
    31   14   15 am
    32   14   42 1
    33   15   16 2
    34   15   17 1
    35   17   21 1
    36   17   18 2
    37   18   19 1
    38   18   23 1
    39   19   20 2
    40   19   43 1
    41   20   21 1
    42   21   22 1
    43   22   44 1
    44   22   45 1
    45   22   46 1
    46   23   24 2
    47   23   25 1
