@<TRIPOS>MOLECULE
ZINC35669040
   34    36     0     0     0
SMALL
USER_CHARGES

@<TRIPOS>ATOM
      1 C1         -0.0184    1.5028    0.0103 C.3       1 <0>        -0.0699
      2 C2          0.0021   -0.0041    0.0020 C.2       1 <0>         0.2310
      3 N1          0.0082   -0.7712   -1.0544 N.2       1 <0>        -0.2794
      4 N2          0.0181   -2.0122   -0.7030 N.2       1 <0>        -0.2322
      5 C3          0.0163   -2.0913    0.5934 C.2       1 <0>         0.1201
      6 N3          0.0235   -0.8177    1.0970 N.pl3     1 <0>        -0.3252
      7 N4          0.0594   -0.4653    2.4064 N.3       1 <0>        -0.4358
      8 C4         -0.4650   -1.4717    3.3279 C.3       1 <0>         0.1415
      9 H1         -1.5006   -1.6907    3.0676 H         1 <0>         0.1348
     10 C5          0.3588   -2.7668    3.2542 C.3       1 <0>        -0.1363
     11 H2          1.4208   -2.5375    3.3422 H         1 <0>         0.1389
     12 S1          0.0086   -3.5254    1.6271 S.3       1 <0>         0.0882
     13 C6         -0.0575   -3.7045    4.3581 C.2       1 <0>         0.4939
     14 O1         -1.2124   -3.7477    4.7105 O.2       1 <0>        -0.4690
     15 O2          0.8547   -4.4916    4.9497 O.3       1 <0>        -0.3406
     16 C7          0.3899   -5.3558    5.9886 C.3       1 <0>         0.0322
     17 C8         -0.4117   -0.9315    4.7338 C.ar      1 <0>        -0.1108
     18 C9          0.6774   -0.1868    5.1467 C.ar      1 <0>        -0.0734
     19 C10         0.7273    0.3095    6.4355 C.ar      1 <0>        -0.1507
     20 C11        -0.3142    0.0607    7.3133 C.ar      1 <0>         0.1172
     21 C12        -1.4045   -0.6852    6.8986 C.ar      1 <0>        -0.1512
     22 C13        -1.4545   -1.1761    5.6077 C.ar      1 <0>        -0.0482
     23 F1         -0.2664    0.5450    8.5736 F         1 <0>        -0.1328
     24 H3          1.0042    1.8801    0.0026 H         1 <0>         0.0906
     25 H4         -0.5455    1.8639   -0.8728 H         1 <0>         0.1015
     26 H5         -0.5286    1.8543    0.9071 H         1 <0>         0.0897
     27 H6          0.9869   -0.1751    2.6775 H         1 <0>         0.3683
     28 H7         -0.3650   -6.0323    5.5878 H         1 <0>         0.0679
     29 H8          1.2258   -5.9352    6.3804 H         1 <0>         0.1100
     30 H9         -0.0458   -4.7590    6.7899 H         1 <0>         0.0665
     31 H10         1.4898    0.0068    4.4619 H         1 <0>         0.1296
     32 H11         1.5784    0.8909    6.7579 H         1 <0>         0.1431
     33 H12        -2.2173   -0.8802    7.5826 H         1 <0>         0.1437
     34 H13        -2.3069   -1.7541    5.2827 H         1 <0>         0.1468
@<TRIPOS>BOND
     1    1    2 1
     2    1   24 1
     3    1   25 1
     4    1   26 1
     5    2    6 1
     6    2    3 2
     7    3    4 1
     8    4    5 2
     9    5   12 1
    10    5    6 1
    11    6    7 1
    12    7    8 1
    13    7   27 1
    14    8    9 1
    15    8   10 1
    16    8   17 1
    17   10   11 1
    18   10   12 1
    19   10   13 1
    20   13   14 2
    21   13   15 1
    22   15   16 1
    23   16   28 1
    24   16   29 1
    25   16   30 1
    26   17   22 ar
    27   17   18 ar
    28   18   19 ar
    29   18   31 1
    30   19   20 ar
    31   19   32 1
    32   20   21 ar
    33   20   23 1
    34   21   22 ar
    35   21   33 1
    36   22   34 1
