@<TRIPOS>MOLECULE
ZINC63811272
   44    47     0     0     0
SMALL
USER_CHARGES

@<TRIPOS>ATOM
      1 C1          0.6481    0.7333   -0.5617 C.ar      1 <0>        -0.0845
      2 C2          1.6047    1.6709   -0.2188 C.ar      1 <0>        -0.1267
      3 C3          2.9444    1.3312   -0.2362 C.ar      1 <0>        -0.0172
      4 C4          3.3294    0.0537   -0.5969 C.ar      1 <0>        -0.1247
      5 C5          2.3725   -0.8859   -0.9405 C.ar      1 <0>         0.1099
      6 C6          1.0306   -0.5446   -0.9223 C.ar      1 <0>        -0.1583
      7 F1          2.7477   -2.1348   -1.2937 F         1 <0>        -0.1462
      8 C7          3.9857    2.3543    0.1379 C.3       1 <0>        -0.0921
      9 C8          3.8994    2.6451    1.6375 C.3       1 <0>         0.1441
     10 C9          4.8546    3.8005    2.0039 C.3       1 <0>        -0.1282
     11 C10         5.4210    3.3602    3.3796 C.3       1 <0>        -0.1358
     12 C11         5.5147    1.8244    3.2002 C.3       1 <0>         0.0894
     13 N1          4.3291    1.4647    2.4013 N.am      1 <0>        -0.6120
     14 C12         3.7368    0.2543    2.3757 C.2       1 <0>         0.5633
     15 O1          2.7667    0.0674    1.6683 O.2       1 <0>        -0.4952
     16 C13         4.2686   -0.8483    3.2100 C.ar      1 <0>        -0.0731
     17 C14         5.5964   -0.7998    3.6623 C.ar      1 <0>        -0.1885
     18 C15         6.1082   -1.8008    4.4303 C.ar      1 <0>        -0.0139
     19 C16         5.3044   -2.8961    4.7771 C.ar      1 <0>        -0.2248
     20 C17         3.9596   -2.9583    4.3267 C.ar      1 <0>         0.2152
     21 C18         3.4490   -1.9147    3.5413 C.ar      1 <0>        -0.0756
     22 N2          3.2044   -4.0121    4.6675 N.2       1 <0>        -0.5505
     23 C19         3.7000   -4.9866    5.4147 C.2       1 <0>         0.5084
     24 N3          4.9651   -4.9749    5.8662 N.pl3     1 <0>        -0.6017
     25 H1          5.2853   -5.7107    6.4112 H         1 <0>         0.4200
     26 C20         5.7975   -3.9531    5.5714 C.2       1 <0>         0.5037
     27 O2          7.0635   -3.9427    6.0240 O.3       1 <0>        -0.6148
     28 S1          2.6915   -6.3092    5.8205 S.2       1 <0>        -0.7133
     29 H2         -0.3987    0.9985   -0.5435 H         1 <0>         0.1212
     30 H3          1.3048    2.6696    0.0625 H         1 <0>         0.1151
     31 H4          4.3763   -0.2113   -0.6111 H         1 <0>         0.1171
     32 H5          0.2832   -1.2769   -1.1898 H         1 <0>         0.1243
     33 H6          4.9767    1.9682   -0.1009 H         1 <0>         0.0748
     34 H7          3.8095    3.2733   -0.4212 H         1 <0>         0.0853
     35 H8          2.8761    2.9079    1.9057 H         1 <0>         0.0794
     36 H9          5.6539    3.8882    1.2680 H         1 <0>         0.0790
     37 H10         4.3077    4.7390    2.0945 H         1 <0>         0.0824
     38 H11         6.4056    3.7940    3.5538 H         1 <0>         0.0847
     39 H12         4.7340    3.6181    4.1857 H         1 <0>         0.0773
     40 H13         6.4270    1.5599    2.6654 H         1 <0>         0.0735
     41 H14         5.4843    1.3266    4.1695 H         1 <0>         0.0926
     42 H15         6.2197    0.0415    3.3976 H         1 <0>         0.1400
     43 H16         7.1317   -1.7515    4.7714 H         1 <0>         0.1340
     44 H17         2.4267   -1.9442    3.1943 H         1 <0>         0.1424
@<TRIPOS>BOND
     1    1    6 ar
     2    1    2 ar
     3    1   29 1
     4    2    3 ar
     5    2   30 1
     6    3    4 ar
     7    3    8 1
     8    4    5 ar
     9    4   31 1
    10    5    6 ar
    11    5    7 1
    12    6   32 1
    13    8    9 1
    14    8   33 1
    15    8   34 1
    16    9   13 1
    17    9   10 1
    18    9   35 1
    19   10   11 1
    20   10   36 1
    21   10   37 1
    22   11   12 1
    23   11   38 1
    24   11   39 1
    25   12   13 1
    26   12   40 1
    27   12   41 1
    28   13   14 am
    29   14   15 2
    30   14   16 1
    31   16   21 ar
    32   16   17 ar
    33   17   18 ar
    34   17   42 1
    35   18   19 ar
    36   18   43 1
    37   19   26 2
    38   19   20 ar
    39   20   21 ar
    40   20   22 2
    41   21   44 1
    42   22   23 1
    43   23   24 1
    44   23   28 2
    45   24   25 1
    46   24   26 1
    47   26   27 1
