@<TRIPOS>MOLECULE
ZINC41572231
   43    45     0     0     0
SMALL
USER_CHARGES

@<TRIPOS>ATOM
      1 C1          1.0020    1.3276   -0.1605 C.3       1 <0>        -0.1160
      2 C2          0.4916   -0.0881   -0.0796 C.ar      1 <0>        -0.0385
      3 C3          0.1501   -0.6307    1.1450 C.ar      1 <0>        -0.1602
      4 C4         -0.3181   -1.9293    1.2192 C.ar      1 <0>         0.0274
      5 C5         -0.4451   -2.6850    0.0687 C.ar      1 <0>        -0.6364
      6 C6         -0.1044   -2.1420   -1.1560 C.ar      1 <0>         0.0284
      7 C7          0.3597   -0.8421   -1.2307 C.ar      1 <0>        -0.1601
      8 C8         -0.2424   -2.9661   -2.4102 C.3       1 <0>        -0.1346
      9 S1         -1.0407   -4.3406    0.1635 S.o2      1 <0>         2.6195
     10 O1         -1.7839   -4.4364    1.3708 O.2       1 <0>        -1.0088
     11 O2         -1.6059   -4.6421   -1.1050 O.2       1 <0>        -1.0083
     12 N1          0.2783   -5.3261    0.3402 N.2       1 <0>        -1.0164
     13 C9          0.1097   -6.6982    0.4421 C.2       1 <0>         0.4382
     14 N2          1.0307   -7.6266    0.5908 N.2       1 <0>        -0.6043
     15 C10         0.7184   -8.9154    0.6744 C.2       1 <0>         0.1339
     16 C11        -0.6098   -9.1901    0.5937 C.2       1 <0>        -0.3034
     17 S2         -1.3255   -7.5821    0.4129 S.3       1 <0>        -0.0998
     18 C12        -1.2535  -10.5326    0.6520 C.3       1 <0>         0.1685
     19 N3         -0.2027  -11.5527    0.4616 N.3       1 <0>        -0.5376
     20 C13         0.9460  -11.2865    1.3385 C.3       1 <0>         0.0596
     21 C14         1.7140  -10.0543    0.8504 C.3       1 <0>        -0.0323
     22 C15        -0.7340  -12.9039    0.6855 C.3       1 <0>         0.0272
     23 C16        -0.6895   -2.5212    2.5544 C.3       1 <0>        -0.1347
     24 H1          0.1621    2.0096   -0.2928 H         1 <0>         0.0723
     25 H2          1.5306    1.5764    0.7597 H         1 <0>         0.0678
     26 H3          1.6824    1.4207   -1.0069 H         1 <0>         0.0678
     27 H4          0.2493   -0.0403    2.0439 H         1 <0>         0.1250
     28 H5          0.6223   -0.4166   -2.1880 H         1 <0>         0.1252
     29 H6         -1.2693   -2.9092   -2.7711 H         1 <0>         0.0883
     30 H7          0.4331   -2.5810   -3.1741 H         1 <0>         0.0636
     31 H8          0.0092   -4.0041   -2.1925 H         1 <0>         0.0921
     32 H9         -1.7294  -10.6709    1.6228 H         1 <0>         0.0360
     33 H10        -1.9980  -10.6187   -0.1394 H         1 <0>         0.0770
     34 H11         0.5916  -11.1118    2.3543 H         1 <0>         0.0361
     35 H12         1.6105  -12.1506    1.3347 H         1 <0>         0.0756
     36 H13         2.1946  -10.2736   -0.1030 H         1 <0>         0.0813
     37 H14         2.4670   -9.7743    1.5871 H         1 <0>         0.0794
     38 H15        -1.5869  -13.0725    0.0281 H         1 <0>         0.0671
     39 H16         0.0413  -13.6393    0.4707 H         1 <0>         0.0671
     40 H17        -1.0505  -13.0024    1.7239 H         1 <0>         0.0229
     41 H18        -1.7640   -2.4231    2.7091 H         1 <0>         0.0876
     42 H19        -0.4144   -3.5758    2.5735 H         1 <0>         0.0939
     43 H20        -0.1587   -1.9929    3.3464 H         1 <0>         0.0625
@<TRIPOS>BOND
     1    1    2 1
     2    1   24 1
     3    1   25 1
     4    1   26 1
     5    2    7 ar
     6    2    3 ar
     7    3    4 ar
     8    3   27 1
     9    4    5 ar
    10    4   23 1
    11    5    6 ar
    12    5    9 1
    13    6    7 ar
    14    6    8 1
    15    7   28 1
    16    8   29 1
    17    8   30 1
    18    8   31 1
    19    9   10 2
    20    9   11 2
    21    9   12 1
    22   12   13 1
    23   13   17 1
    24   13   14 2
    25   14   15 1
    26   15   21 1
    27   15   16 2
    28   16   17 1
    29   16   18 1
    30   18   19 1
    31   18   32 1
    32   18   33 1
    33   19   20 1
    34   19   22 1
    35   20   21 1
    36   20   34 1
    37   20   35 1
    38   21   36 1
    39   21   37 1
    40   22   38 1
    41   22   39 1
    42   22   40 1
    43   23   41 1
    44   23   42 1
    45   23   43 1
