@<TRIPOS>MOLECULE
ZINC35057217
   60    63     0     0     0
SMALL
USER_CHARGES

@<TRIPOS>ATOM
      1 C1         -1.1990    2.1015    0.1737 C.3       1 <0>        -0.1448
      2 C2         -0.4169    0.7973    0.3414 C.3       1 <0>         0.0146
      3 H1          0.0606    0.7834    1.3211 H         1 <0>         0.0418
      4 C3          0.6364    0.7016   -0.7321 C.2       1 <0>         0.4927
      5 O1          1.5542    1.5037   -0.7588 O.co2     1 <0>        -0.7066
      6 O2          0.5708   -0.1779   -1.5739 O.co2     1 <0>        -0.6422
      7 O3         -1.3111   -0.3119    0.2315 O.3       1 <0>        -0.3068
      8 C4         -1.8189   -0.7755    1.4842 C.3       1 <0>         0.0793
      9 H2         -1.4163   -0.1639    2.2916 H         1 <0>         0.0773
     10 C5         -1.4131   -2.2395    1.6950 C.3       1 <0>         0.1308
     11 H3         -1.7497   -2.5714    2.6771 H         1 <0>         0.1169
     12 C6         -2.0549   -3.1124    0.6151 C.3       1 <0>         0.2383
     13 H4         -1.8158   -4.1586    0.8062 H         1 <0>         0.1105
     14 O4         -3.4758   -2.9401    0.6266 O.3       1 <0>        -0.3740
     15 C7         -3.8844   -1.5987    0.3687 C.3       1 <0>         0.0329
     16 H5         -3.4806   -1.2745   -0.5904 H         1 <0>         0.1037
     17 C8         -3.3450   -0.6870    1.4845 C.3       1 <0>         0.0540
     18 H6         -3.7285   -1.0262    2.4468 H         1 <0>         0.0834
     19 O5         -3.7840    0.6491    1.2409 O.3       1 <0>        -0.3471
     20 C9         -5.2102    0.7727    1.2017 C.3       1 <0>         0.3324
     21 H7         -5.4775    1.8061    0.9812 H         1 <0>         0.1679
     22 O6         -5.7493   -0.0818    0.1921 O.3       1 <0>        -0.3642
     23 C10        -5.4088   -1.4789    0.3459 C.3       1 <0>         0.0692
     24 C11        -5.7824    0.3832    2.5403 C.2       1 <0>        -0.0820
     25 C12        -7.0877    0.3737    2.8651 C.2       1 <0>        -0.1791
     26 C13        -7.1720   -0.0535    4.2102 C.2       1 <0>        -0.2183
     27 C14        -5.9132   -0.2795    4.6270 C.2       1 <0>        -0.0339
     28 O7         -5.0761   -0.0189    3.6096 O.3       1 <0>        -0.1616
     29 O8         -1.5440   -2.7355   -0.6651 O.3       1 <0>        -0.2603
     30 C15        -1.9338   -3.4852   -1.7306 C.ar      1 <0>         0.0995
     31 C16        -2.7938   -4.5563   -1.5485 C.ar      1 <0>        -0.1666
     32 C17        -3.1895   -5.3171   -2.6328 C.ar      1 <0>        -0.1345
     33 C18        -2.7288   -5.0122   -3.9001 C.ar      1 <0>        -0.1207
     34 C19        -1.8702   -3.9452   -4.0887 C.ar      1 <0>        -0.1922
     35 C20        -1.4746   -3.1748   -3.0070 C.ar      1 <0>         0.1141
     36 O9         -0.6348   -2.1212   -3.1916 O.3       1 <0>        -0.2493
     37 C21        -0.2039   -1.8616   -4.5291 C.3       1 <0>         0.0349
     38 N1          0.0448   -2.3579    1.6136 N.am      1 <0>        -0.7029
     39 C22         0.6778   -3.3521    2.2673 C.2       1 <0>         0.5143
     40 O10         0.0403   -4.1487    2.9231 O.2       1 <0>        -0.5616
     41 C23         2.1775   -3.4738    2.1836 C.3       1 <0>        -0.1714
     42 H8         -0.5169    2.9476    0.2575 H         1 <0>         0.0563
     43 H9         -1.6765    2.1154   -0.8061 H         1 <0>         0.0520
     44 H10        -1.9609    2.1707    0.9501 H         1 <0>         0.0476
     45 H11        -5.8100   -2.0533   -0.4891 H         1 <0>         0.1118
     46 H12        -5.8209   -1.8547    1.2825 H         1 <0>         0.0653
     47 H13        -7.9130    0.6415    2.2220 H         1 <0>         0.1518
     48 H14        -8.0740   -0.1747    4.7917 H         1 <0>         0.1496
     49 H15        -5.6248   -0.6171    5.6115 H         1 <0>         0.2031
     50 H16        -3.1547   -4.7970   -0.5595 H         1 <0>         0.1336
     51 H17        -3.8599   -6.1517   -2.4895 H         1 <0>         0.1177
     52 H18        -3.0399   -5.6092   -4.7446 H         1 <0>         0.1174
     53 H19        -1.5114   -3.7094   -5.0797 H         1 <0>         0.1288
     54 H20         0.3282   -2.7312   -4.9147 H         1 <0>         0.0413
     55 H21        -1.0712   -1.6584   -5.1573 H         1 <0>         0.0415
     56 H22         0.4599   -0.9971   -4.5357 H         1 <0>         0.1029
     57 H23         0.5546   -1.7207    1.0891 H         1 <0>         0.4211
     58 H24         2.5723   -2.6758    1.5548 H         1 <0>         0.0823
     59 H25         2.6049   -3.3940    3.1832 H         1 <0>         0.0933
     60 H26         2.4401   -4.4398    1.7523 H         1 <0>         0.0945
@<TRIPOS>BOND
     1    1    2 1
     2    1   42 1
     3    1   43 1
     4    1   44 1
     5    2    3 1
     6    2    4 1
     7    2    7 1
     8    4    5 2
     9    4    6 1
    10    7    8 1
    11    8    9 1
    12    8   17 1
    13    8   10 1
    14   10   11 1
    15   10   12 1
    16   10   38 1
    17   12   13 1
    18   12   14 1
    19   12   29 1
    20   14   15 1
    21   15   16 1
    22   15   23 1
    23   15   17 1
    24   17   18 1
    25   17   19 1
    26   19   20 1
    27   20   21 1
    28   20   22 1
    29   20   24 1
    30   22   23 1
    31   23   45 1
    32   23   46 1
    33   24   28 1
    34   24   25 2
    35   25   26 1
    36   25   47 1
    37   26   27 2
    38   26   48 1
    39   27   28 1
    40   27   49 1
    41   29   30 1
    42   30   35 ar
    43   30   31 ar
    44   31   32 ar
    45   31   50 1
    46   32   33 ar
    47   32   51 1
    48   33   34 ar
    49   33   52 1
    50   34   35 ar
    51   34   53 1
    52   35   36 1
    53   36   37 1
    54   37   54 1
    55   37   55 1
    56   37   56 1
    57   38   39 am
    58   38   57 1
    59   39   40 2
    60   39   41 1
    61   41   58 1
    62   41   59 1
    63   41   60 1
