@<TRIPOS>MOLECULE
ZINC36053757
   70    73     0     0     0
SMALL
USER_CHARGES

@<TRIPOS>ATOM
      1 C1         -4.1459    1.3144    2.2711 C.3       1 <0>        -0.1880
      2 C2         -2.9401    1.1595    1.3421 C.3       1 <0>         0.1171
      3 N1         -2.8339   -0.2357    0.9082 N.am      1 <0>        -0.6113
      4 C3         -3.5101   -0.6759   -0.3146 C.3       1 <0>         0.1146
      5 C4         -2.5698   -0.5007   -1.5087 C.3       1 <0>        -0.1680
      6 C5         -2.1142   -1.1142    1.6338 C.2       1 <0>         0.6178
      7 O1         -1.9583   -2.2545    1.2310 O.2       1 <0>        -0.5417
      8 C6         -1.5444   -0.7167    2.8528 C.2       1 <0>        -0.3590
      9 C7         -2.2733   -0.7482    4.0241 C.2       1 <0>         0.2216
     10 N2         -1.7230   -0.3703    5.1675 N.2       1 <0>        -0.5939
     11 C8         -0.4836    0.0539    5.3004 C.2       1 <0>         0.3253
     12 N3          0.4017    0.1591    4.2640 N.pl3     1 <0>        -0.5267
     13 C9         -0.1091   -0.2457    2.9273 C.3       1 <0>         0.2797
     14 H1         -0.0009    0.6076    2.2578 H         1 <0>         0.0700
     15 C10         0.7701   -1.3527    2.4054 C.ar      1 <0>        -0.0966
     16 C11         1.2803   -2.2983    3.2741 C.ar      1 <0>        -0.0464
     17 C12         2.0874   -3.3138    2.7960 C.ar      1 <0>        -0.1513
     18 C13         2.3858   -3.3863    1.4476 C.ar      1 <0>        -0.0842
     19 C14         1.8779   -2.4438    0.5750 C.ar      1 <0>        -0.2084
     20 C15         1.0633   -1.4266    1.0516 C.ar      1 <0>         0.1472
     21 O2          0.5578   -0.5013    0.1942 O.3       1 <0>        -0.3104
     22 C16         0.8209   -0.6938   -1.1971 C.3       1 <0>         0.0324
     23 C17         1.6678    0.6203    4.5656 C.2       1 <0>         0.2380
     24 C18         1.9317    0.9301    5.8540 C.2       1 <0>        -0.3085
     25 S1          0.3775    0.5678    6.6463 S.3       1 <0>         0.1041
     26 C19         2.6924    0.7687    3.5220 C.2       1 <0>        -0.4631
     27 C20         3.9614    1.0656    3.8615 C.2       1 <0>         0.5036
     28 O3          4.3272    1.0841    5.1664 O.3       1 <0>        -0.6998
     29 N4          4.8925    1.3521    2.8774 N.pl3     1 <0>        -0.6319
     30 C21         4.4742    1.4382    1.4760 C.3       1 <0>         0.1062
     31 C22         6.2959    1.5689    3.2376 C.3       1 <0>         0.1718
     32 C23         7.0078    0.2425    3.3055 C.ar      1 <0>        -0.0913
     33 C24         6.9646   -0.5065    4.4666 C.ar      1 <0>        -0.0845
     34 C25         7.6176   -1.7233    4.5289 C.ar      1 <0>        -0.1277
     35 C26         8.3136   -2.1913    3.4300 C.ar      1 <0>        -0.1286
     36 C27         8.3560   -1.4427    2.2686 C.ar      1 <0>        -0.1329
     37 C28         7.6994   -0.2280    2.2049 C.ar      1 <0>        -0.1163
     38 C29        -3.7058   -1.2155    4.0017 C.3       1 <0>        -0.1060
     39 H2         -4.1910    2.3390    2.6402 H         1 <0>         0.0610
     40 H3         -5.0593    1.0854    1.7221 H         1 <0>         0.0525
     41 H4         -4.0464    0.6290    3.1128 H         1 <0>         0.0775
     42 H5         -3.0676    1.8023    0.4711 H         1 <0>         0.0696
     43 H6         -2.0325    1.4446    1.8742 H         1 <0>         0.0763
     44 H7         -3.7850   -1.7264   -0.2197 H         1 <0>         0.0770
     45 H8         -4.4083   -0.0778   -0.4686 H         1 <0>         0.0680
     46 H9         -3.0729   -0.8283   -2.4185 H         1 <0>         0.0569
     47 H10        -2.2949    0.5498   -1.6037 H         1 <0>         0.0524
     48 H11        -1.6716   -1.0988   -1.3548 H         1 <0>         0.0635
     49 H12         1.0487   -2.2438    4.3275 H         1 <0>         0.1108
     50 H13         2.4858   -4.0515    3.4767 H         1 <0>         0.1155
     51 H14         3.0168   -4.1804    1.0767 H         1 <0>         0.1158
     52 H15         2.1112   -2.5008   -0.4779 H         1 <0>         0.1194
     53 H16         1.8963   -0.7749   -1.3556 H         1 <0>         0.0503
     54 H17         0.3337   -1.6081   -1.5359 H         1 <0>         0.0514
     55 H18         0.4335    0.1548   -1.7610 H         1 <0>         0.0921
     56 H19         2.8472    1.3015    6.2904 H         1 <0>         0.2273
     57 H20         2.4275    0.6395    2.4830 H         1 <0>         0.0871
     58 H21         4.1852    2.4636    1.2455 H         1 <0>         0.0335
     59 H22         5.3007    1.1399    0.8311 H         1 <0>         0.0445
     60 H23         3.6253    0.7752    1.3088 H         1 <0>         0.0645
     61 H24         6.7710    2.1982    2.4850 H         1 <0>         0.0606
     62 H25         6.3499    2.0605    4.2089 H         1 <0>         0.0836
     63 H26         6.4209   -0.1409    5.3251 H         1 <0>         0.1387
     64 H27         7.5845   -2.3081    5.4362 H         1 <0>         0.1153
     65 H28         8.8244   -3.1416    3.4789 H         1 <0>         0.1125
     66 H29         8.9000   -1.8082    1.4102 H         1 <0>         0.1125
     67 H30         7.7295    0.3551    1.2963 H         1 <0>         0.1117
     68 H31        -3.7452   -2.2780    4.2420 H         1 <0>         0.0745
     69 H32        -4.2824   -0.6549    4.7374 H         1 <0>         0.0764
     70 H33        -4.1259   -1.0517    3.0093 H         1 <0>         0.0739
@<TRIPOS>BOND
     1    1    2 1
     2    1   39 1
     3    1   40 1
     4    1   41 1
     5    2    3 1
     6    2   42 1
     7    2   43 1
     8    3    4 1
     9    3    6 am
    10    4    5 1
    11    4   44 1
    12    4   45 1
    13    5   46 1
    14    5   47 1
    15    5   48 1
    16    6    7 2
    17    6    8 1
    18    8   13 1
    19    8    9 2
    20    9   10 1
    21    9   38 1
    22   10   11 2
    23   11   25 1
    24   11   12 1
    25   12   13 1
    26   12   23 1
    27   13   14 1
    28   13   15 1
    29   15   20 ar
    30   15   16 ar
    31   16   17 ar
    32   16   49 1
    33   17   18 ar
    34   17   50 1
    35   18   19 ar
    36   18   51 1
    37   19   20 ar
    38   19   52 1
    39   20   21 1
    40   21   22 1
    41   22   53 1
    42   22   54 1
    43   22   55 1
    44   23   24 2
    45   23   26 1
    46   24   25 1
    47   24   56 1
    48   26   27 2
    49   26   57 1
    50   27   28 1
    51   27   29 1
    52   29   30 1
    53   29   31 1
    54   30   58 1
    55   30   59 1
    56   30   60 1
    57   31   32 1
    58   31   61 1
    59   31   62 1
    60   32   37 ar
    61   32   33 ar
    62   33   34 ar
    63   33   63 1
    64   34   35 ar
    65   34   64 1
    66   35   36 ar
    67   35   65 1
    68   36   37 ar
    69   36   66 1
    70   37   67 1
    71   38   68 1
    72   38   69 1
    73   38   70 1
