@<TRIPOS>MOLECULE
ZINC51395804
   39    40     0     0     0
SMALL
USER_CHARGES

@<TRIPOS>ATOM
      1 C1         -0.0187    1.5258    0.0104 C.3       1 <0>        -0.1456
      2 C2          0.0021   -0.0041    0.0020 C.3       1 <0>        -0.0601
      3 C3          0.7182   -0.4975   -1.2568 C.3       1 <0>        -0.1451
      4 C4          0.7309   -0.5033    1.2229 C.ar      1 <0>        -0.0484
      5 C5          2.0501   -0.1479    1.4338 C.ar      1 <0>        -0.1313
      6 C6          2.7187   -0.6058    2.5537 C.ar      1 <0>        -0.0492
      7 C7          2.0680   -1.4188    3.4630 C.ar      1 <0>        -0.4659
      8 C8          0.7486   -1.7734    3.2525 C.ar      1 <0>        -0.0426
      9 C9          0.0787   -1.3120    2.1348 C.ar      1 <0>        -0.1399
     10 S1          2.9205   -2.0034    4.8898 S.o       1 <0>         1.3231
     11 O1          4.2895   -1.9697    4.5102 O.2       1 <0>        -0.8196
     12 C10         2.6085   -0.7275    6.1410 C.3       1 <0>        -0.4468
     13 C11         3.3020   -1.1150    7.4486 C.3       1 <0>         0.0837
     14 H1          2.9975   -2.1136    7.7618 H         1 <0>         0.0692
     15 C12         2.9941   -0.0773    8.5580 C.3       1 <0>        -0.1404
     16 C13         4.2047   -0.2489    9.5075 C.3       1 <0>        -0.1301
     17 C14         5.2843   -0.9085    8.6277 C.3       1 <0>         0.0065
     18 H2          5.5350   -1.8925    9.0238 H         1 <0>         0.0595
     19 O2          4.7367   -1.0429    7.3039 O.3       1 <0>        -0.3376
     20 C15         6.5164   -0.0415    8.5922 C.2       1 <0>         0.4978
     21 O3          7.1588    0.1469    9.6112 O.co2     1 <0>        -0.6987
     22 O4          6.8709    0.4715    7.5445 O.co2     1 <0>        -0.6744
     23 H3          1.0039    1.9031    0.0027 H         1 <0>         0.0577
     24 H4         -0.5459    1.8868   -0.8726 H         1 <0>         0.0584
     25 H5         -0.5289    1.8773    0.9072 H         1 <0>         0.0566
     26 H6         -1.0205   -0.3814    0.0098 H         1 <0>         0.0786
     27 H7          1.7408   -0.1202   -1.2645 H         1 <0>         0.0576
     28 H8          0.7330   -1.5874   -1.2628 H         1 <0>         0.0566
     29 H9          0.1910   -0.1364   -2.1398 H         1 <0>         0.0583
     30 H10         2.5584    0.4872    0.7235 H         1 <0>         0.1210
     31 H11         3.7495   -0.3288    2.7182 H         1 <0>         0.1283
     32 H12         0.2403   -2.4088    3.9627 H         1 <0>         0.1349
     33 H13        -0.9532   -1.5860    1.9723 H         1 <0>         0.1244
     34 H14         3.0001    0.2278    5.7912 H         1 <0>         0.0961
     35 H15         1.5354   -0.6399    6.3109 H         1 <0>         0.1200
     36 H16         2.9612    0.9321    8.1481 H         1 <0>         0.0721
     37 H17         2.0619   -0.3189    9.0686 H         1 <0>         0.0734
     38 H18         4.5469    0.7210    9.8686 H         1 <0>         0.0756
     39 H19         3.9448   -0.8983   10.3436 H         1 <0>         0.0661
@<TRIPOS>BOND
     1    1    2 1
     2    1   23 1
     3    1   24 1
     4    1   25 1
     5    2    3 1
     6    2    4 1
     7    2   26 1
     8    3   27 1
     9    3   28 1
    10    3   29 1
    11    4    9 ar
    12    4    5 ar
    13    5    6 ar
    14    5   30 1
    15    6    7 ar
    16    6   31 1
    17    7    8 ar
    18    7   10 1
    19    8    9 ar
    20    8   32 1
    21    9   33 1
    22   10   11 2
    23   10   12 1
    24   12   13 1
    25   12   34 1
    26   12   35 1
    27   13   14 1
    28   13   19 1
    29   13   15 1
    30   15   16 1
    31   15   36 1
    32   15   37 1
    33   16   17 1
    34   16   38 1
    35   16   39 1
    36   17   18 1
    37   17   19 1
    38   17   20 1
    39   20   21 2
    40   20   22 1
