@<TRIPOS>MOLECULE
ZINC61836178
   36    36     0     0     0
SMALL
USER_CHARGES

@<TRIPOS>ATOM
      1 C1         -0.0187    1.5258    0.0104 C.3       1 <0>        -0.1727
      2 C2          0.0021   -0.0041    0.0020 C.3       1 <0>         0.1033
      3 N1          0.6878   -0.4765   -1.2033 N.am      1 <0>        -0.6181
      4 C3          2.1353   -0.7012   -1.1821 C.3       1 <0>         0.1962
      5 C4          2.4170   -2.1231   -0.7698 C.2       1 <0>        -0.1382
      6 C5          2.5503   -3.2261   -1.5458 C.2       1 <0>        -0.1410
      7 C6          2.8107   -4.4427   -0.9431 C.2       1 <0>        -0.1024
      8 C7          2.9249   -4.4959    0.4074 C.2       1 <0>        -0.1805
      9 S1          2.6692   -2.7898    0.8670 S.3       1 <0>         0.0836
     10 Br1         3.2725   -5.9884    1.5153 Br        1 <0>         0.0317
     11 C8         -0.0130   -0.7045   -2.3317 C.2       1 <0>         0.5188
     12 O1          0.5546   -1.0956   -3.3296 O.2       1 <0>        -0.5182
     13 C9         -1.5021   -0.4734   -2.3536 C.3       1 <0>        -0.1361
     14 C10        -2.0492   -0.8046   -3.7435 C.3       1 <0>        -0.0503
     15 H1         -1.5088   -0.2274   -4.4938 H         1 <0>         0.0760
     16 C11        -1.8673   -2.2983   -4.0205 C.3       1 <0>        -0.1469
     17 C12        -3.5369   -0.4522   -3.8032 C.3       1 <0>        -0.1801
     18 C13        -4.0471   -0.6626   -5.2055 C.2       1 <0>         0.4908
     19 O2         -3.2909   -1.0577   -6.0765 O.co2     1 <0>        -0.6898
     20 O3         -5.2160   -0.4377   -5.4691 O.co2     1 <0>        -0.7103
     21 H2          1.0039    1.9031    0.0027 H         1 <0>         0.0572
     22 H3         -0.5459    1.8868   -0.8726 H         1 <0>         0.0629
     23 H4         -0.5289    1.8773    0.9072 H         1 <0>         0.0680
     24 H5          0.5293   -0.3651    0.8851 H         1 <0>         0.0751
     25 H6         -1.0205   -0.3814    0.0098 H         1 <0>         0.0848
     26 H7          2.5453   -0.5232   -2.1762 H         1 <0>         0.1107
     27 H8          2.5986   -0.0180   -0.4703 H         1 <0>         0.0919
     28 H9          2.4542   -3.1557   -2.6192 H         1 <0>         0.1476
     29 H10         2.9211   -5.3371   -1.5383 H         1 <0>         0.1409
     30 H11        -1.9801   -1.1142   -1.6127 H         1 <0>         0.0864
     31 H12        -1.7112    0.5706   -2.1201 H         1 <0>         0.0875
     32 H13        -2.4078   -2.8754   -3.2703 H         1 <0>         0.0261
     33 H14        -2.2572   -2.5342   -5.0107 H         1 <0>         0.0833
     34 H15        -0.8075   -2.5493   -3.9780 H         1 <0>         0.0533
     35 H16        -4.0898   -1.0923   -3.1156 H         1 <0>         0.0547
     36 H17        -3.6749    0.5910   -3.5190 H         1 <0>         0.0537
@<TRIPOS>BOND
     1    1    2 1
     2    1   21 1
     3    1   22 1
     4    1   23 1
     5    2    3 1
     6    2   24 1
     7    2   25 1
     8    3    4 1
     9    3   11 am
    10    4    5 1
    11    4   26 1
    12    4   27 1
    13    5    9 1
    14    5    6 2
    15    6    7 1
    16    6   28 1
    17    7    8 2
    18    7   29 1
    19    8    9 1
    20    8   10 1
    21   11   12 2
    22   11   13 1
    23   13   14 1
    24   13   30 1
    25   13   31 1
    26   14   15 1
    27   14   16 1
    28   14   17 1
    29   16   32 1
    30   16   33 1
    31   16   34 1
    32   17   18 1
    33   17   35 1
    34   17   36 1
    35   18   19 2
    36   18   20 1
