@<TRIPOS>MOLECULE
ZINC20032285
   50    53     0     0     0
SMALL
USER_CHARGES
(6E)-6-[[3-chloro-4-[2-(2-methylphenoxy)ethoxy]phenyl]methylene]-5-imino-3-methyl-thiazolo[3,2-a]pyrimidin-7-one
@<TRIPOS>ATOM
      1 C1          0.3397    0.5357    0.6122 C.3       1 <0>        -0.1072
      2 C2          0.3528    2.0338    0.4490 C.ar      1 <0>        -0.1137
      3 C3         -0.8296    2.7462    0.5081 C.ar      1 <0>        -0.0844
      4 C4         -0.8177    4.1209    0.3633 C.ar      1 <0>        -0.1571
      5 C5          0.3758    4.7856    0.1485 C.ar      1 <0>        -0.0878
      6 C6          1.5599    4.0775    0.0833 C.ar      1 <0>        -0.2079
      7 C7          1.5513    2.6982    0.2336 C.ar      1 <0>         0.1309
      8 O1          2.7150    1.9992    0.1694 O.3       1 <0>        -0.2998
      9 C8          3.9106    2.7489   -0.0549 C.3       1 <0>         0.0617
     10 C9          5.1086    1.7982   -0.0960 C.3       1 <0>         0.0552
     11 O2          4.9894    0.9302   -1.2249 O.3       1 <0>        -0.2943
     12 C10         5.9779    0.0187   -1.4083 C.ar      1 <0>         0.1542
     13 C11         7.0429   -0.0371   -0.5158 C.ar      1 <0>        -0.1990
     14 C12         8.0420   -0.9514   -0.6922 C.ar      1 <0>        -0.0074
     15 C13         7.9965   -1.8394   -1.7765 C.ar      1 <0>        -0.0929
     16 C14         6.9228   -1.7836   -2.6769 C.ar      1 <0>        -0.0455
     17 C15         5.9188   -0.8607   -2.4860 C.ar      1 <0>        -0.0766
     18 Cl1         4.5830   -0.7896   -3.5923 Cl        1 <0>        -0.0619
     19 C16         9.0666   -2.8210   -1.9682 C.2       1 <0>         0.0260
     20 C17         9.7068   -3.3633   -0.8769 C.2       1 <0>        -0.1885
     21 C18         9.2362   -3.1142    0.5149 C.2       1 <0>         0.4020
     22 N1          7.9786   -2.9542    0.8285 N.2       1 <0>        -0.6550
     23 N2         10.2784   -3.0708    1.4641 N.pl3     1 <0>        -0.5192
     24 C19        10.1992   -2.4713    2.6877 C.2       1 <0>         0.1636
     25 C20        11.2352   -2.5594    3.5267 C.2       1 <0>        -0.4328
     26 S1         12.4068   -3.5135    2.5745 S.3       1 <0>         0.1272
     27 C21        11.4623   -3.7000    1.1457 C.2       1 <0>         0.3696
     28 N3         11.7705   -4.2844    0.0108 N.2       1 <0>        -0.5962
     29 C22        10.9077   -4.2236   -1.0208 C.2       1 <0>         0.5486
     30 O3         11.1071   -4.8575   -2.0444 O.2       1 <0>        -0.4963
     31 C23         8.9566   -1.7187    3.0881 C.2       1 <0>        -0.5234
     32 H1         -0.6933    0.1934    0.7730 H         1 <0>         0.0629
     33 H2          0.9577    0.2558    1.4781 H         1 <0>         0.0705
     34 H3          0.7451    0.0645   -0.2953 H         1 <0>         0.0716
     35 H4         -1.7635    2.2289    0.6718 H         1 <0>         0.1278
     36 H5         -1.7425    4.6764    0.4139 H         1 <0>         0.1220
     37 H6          0.3820    5.8592    0.0312 H         1 <0>         0.1226
     38 H7          2.4918    4.5970   -0.0849 H         1 <0>         0.1266
     39 H8          3.8338    3.2836   -1.0131 H         1 <0>         0.0756
     40 H9          4.0465    3.4750    0.7602 H         1 <0>         0.0864
     41 H10         6.0372    2.3820   -0.1788 H         1 <0>         0.0881
     42 H11         5.1331    1.1991    0.8262 H         1 <0>         0.0822
     43 H12         7.0799    0.6452    0.3205 H         1 <0>         0.1342
     44 H13         8.8669   -0.9908    0.0037 H         1 <0>         0.1241
     45 H14         6.8814   -2.4645   -3.5142 H         1 <0>         0.1430
     46 H15         9.3587   -3.1248   -2.9843 H         1 <0>         0.1536
     47 H16         7.6914   -2.7729    1.8748 H         1 <0>         0.3977
     48 H17        11.1806   -2.0887    4.5194 H         1 <0>         0.1849
     49 H18         9.2241   -0.9136    3.7724 H         1 <0>         0.0214
     50 H19         8.4840   -1.2989    2.2001 H         1 <0>         0.0126
@<TRIPOS>BOND
     1    1    2 1
     2    1   32 1
     3    1   33 1
     4    1   34 1
     5    2    7 ar
     6    2    3 ar
     7    3    4 ar
     8    3   35 1
     9    4    5 ar
    10    4   36 1
    11    5    6 ar
    12    5   37 1
    13    6    7 ar
    14    6   38 1
    15    7    8 1
    16    8    9 1
    17    9   10 1
    18    9   39 1
    19    9   40 1
    20   10   11 1
    21   10   41 1
    22   10   42 1
    23   11   12 1
    24   12   17 ar
    25   12   13 ar
    26   13   14 ar
    27   13   43 1
    28   14   15 ar
    29   14   44 1
    30   15   16 ar
    31   15   19 1
    32   16   17 ar
    33   16   45 1
    34   17   18 1
    35   19   20 2
    36   19   46 1
    37   20   29 1
    38   20   21 1
    39   21   22 2
    40   21   23 1
    41   22   47 1
    42   23   27 1
    43   23   24 1
    44   24   25 2
    45   24   31 1
    46   25   26 1
    47   25   48 1
    48   26   27 1
    49   27   28 2
    50   28   29 1
    51   29   30 2
    52   31   49 1
    53   31   50 1
