@<TRIPOS>MOLECULE
ZINC20292319
   44    46     0     0     0
SMALL
USER_CHARGES

@<TRIPOS>ATOM
      1 C1         -0.0184    1.5028    0.0103 C.3       1 <0>        -0.1188
      2 C2          0.0021   -0.0041    0.0020 C.ar      1 <0>        -0.0746
      3 C3          0.0057   -0.6887   -1.1989 C.ar      1 <0>        -0.1214
      4 C4          0.0245   -2.0709   -1.2065 C.ar      1 <0>        -0.0919
      5 C5          0.0400   -2.7685   -0.0132 C.ar      1 <0>        -0.0878
      6 C6          0.0373   -2.0839    1.1877 C.ar      1 <0>        -0.0926
      7 C7          0.0229   -0.7016    1.1953 C.ar      1 <0>        -0.1216
      8 C8          0.0595   -4.2753   -0.0215 C.3       1 <0>        -0.0673
      9 S1          1.7773   -4.8578   -0.0342 S.3       1 <0>         0.0313
     10 C9          1.6320   -6.6138   -0.0429 C.2       1 <0>         0.2286
     11 N1          0.5109   -7.2945   -0.0461 N.2       1 <0>        -0.3053
     12 N2          0.8323   -8.6581   -0.0529 N.2       1 <0>        -0.3006
     13 C10         2.1389   -8.7663   -0.0537 C.2       1 <0>         0.4641
     14 N3          2.6672   -7.5051   -0.0535 N.pl3     1 <0>        -0.3484
     15 N4          3.9967   -7.1915   -0.0592 N.3       1 <0>        -0.5880
     16 N5          2.8590   -9.9519   -0.0597 N.pl3     1 <0>        -0.5575
     17 N6          2.1855  -11.1804   -0.0663 N.2       1 <0>        -0.1731
     18 C11         2.8597  -12.2905   -0.0719 C.2       1 <0>         0.0956
     19 C12         2.1515  -13.5825   -0.0787 C.ar      1 <0>        -0.0928
     20 C13         2.8739  -14.7783   -0.0790 C.ar      1 <0>        -0.0572
     21 C14         2.2076  -15.9846   -0.0855 C.ar      1 <0>        -0.1597
     22 C15         0.8184  -16.0162   -0.0917 C.ar      1 <0>         0.1419
     23 C16         0.0921  -14.8342   -0.0915 C.ar      1 <0>        -0.1811
     24 C17         0.7498  -13.6168   -0.0792 C.ar      1 <0>         0.1666
     25 O1          0.0399  -12.4588   -0.0727 O.3       1 <0>        -0.4699
     26 O2          0.1688  -17.2095   -0.0985 O.3       1 <0>        -0.4974
     27 H1          1.0042    1.8801    0.0026 H         1 <0>         0.0729
     28 H2         -0.5455    1.8639   -0.8728 H         1 <0>         0.0681
     29 H3         -0.5286    1.8543    0.9071 H         1 <0>         0.0680
     30 H4         -0.0064   -0.1436   -2.1312 H         1 <0>         0.1258
     31 H5          0.0266   -2.6057   -2.1448 H         1 <0>         0.1272
     32 H6          0.0491   -2.6289    2.1200 H         1 <0>         0.1268
     33 H7          0.0245   -0.1667    2.1335 H         1 <0>         0.1257
     34 H8         -0.4447   -4.6501    0.8693 H         1 <0>         0.1052
     35 H9         -0.4546   -4.6404   -0.9106 H         1 <0>         0.1058
     36 H10         4.3539   -7.1136    0.8813 H         1 <0>         0.3642
     37 H11         4.5251   -7.8661   -0.5919 H         1 <0>         0.3689
     38 H12         3.8287   -9.9304   -0.0595 H         1 <0>         0.3885
     39 H13         3.9394  -12.2666   -0.0716 H         1 <0>         0.1226
     40 H14         3.9537  -14.7574   -0.0746 H         1 <0>         0.1378
     41 H15         2.7670  -16.9085   -0.0861 H         1 <0>         0.1375
     42 H16        -0.9875  -14.8642   -0.0963 H         1 <0>         0.1402
     43 H17        -0.1655  -12.1185   -0.9543 H         1 <0>         0.3967
     44 H18        -0.0232  -17.5578    0.7829 H         1 <0>         0.3972
@<TRIPOS>BOND
     1    1    2 1
     2    1   27 1
     3    1   28 1
     4    1   29 1
     5    2    7 ar
     6    2    3 ar
     7    3    4 ar
     8    3   30 1
     9    4    5 ar
    10    4   31 1
    11    5    6 ar
    12    5    8 1
    13    6    7 ar
    14    6   32 1
    15    7   33 1
    16    8    9 1
    17    8   34 1
    18    8   35 1
    19    9   10 1
    20   10   14 1
    21   10   11 2
    22   11   12 1
    23   12   13 2
    24   13   14 1
    25   13   16 1
    26   14   15 1
    27   15   36 1
    28   15   37 1
    29   16   17 1
    30   16   38 1
    31   17   18 2
    32   18   19 1
    33   18   39 1
    34   19   24 ar
    35   19   20 ar
    36   20   21 ar
    37   20   40 1
    38   21   22 ar
    39   21   41 1
    40   22   23 ar
    41   22   26 1
    42   23   24 ar
    43   23   42 1
    44   24   25 1
    45   25   43 1
    46   26   44 1
