@<TRIPOS>MOLECULE
ZINC13225526
   48    50     0     0     0
SMALL
USER_CHARGES
(2S,3aS,7aS)-1-[(2R)-2-(3-methylphenoxy)propanoyl]-2,3,3a,4,5,6,7,7a-octahydroindole-2-carboxylic acid
@<TRIPOS>ATOM
      1 C1         -8.1954   -1.5389   -0.5109 C.3       1 <0>        -0.1155
      2 C2         -7.5987   -0.9221    0.7279 C.ar      1 <0>        -0.0466
      3 C3         -8.4190   -0.3158    1.6616 C.ar      1 <0>        -0.1661
      4 C4         -7.8747    0.2513    2.7987 C.ar      1 <0>        -0.0761
      5 C5         -6.5091    0.2131    3.0053 C.ar      1 <0>        -0.1574
      6 C6         -5.6841   -0.3949    2.0705 C.ar      1 <0>         0.1434
      7 C7         -6.2324   -0.9583    0.9272 C.ar      1 <0>        -0.2159
      8 O1         -4.3406   -0.4338    2.2714 O.3       1 <0>        -0.2841
      9 C8         -3.5418   -0.9686    1.2141 C.3       1 <0>         0.0542
     10 H1         -4.0543   -0.8247    0.2630 H         1 <0>         0.1176
     11 C9         -3.3165   -2.4632    1.4510 C.3       1 <0>        -0.1818
     12 C10        -2.2125   -0.2593    1.1808 C.2       1 <0>         0.5341
     13 O2         -1.9885    0.6457    1.9565 O.2       1 <0>        -0.4972
     14 N1         -1.2727   -0.6306    0.2889 N.am      1 <0>        -0.5839
     15 C11        -1.4444   -1.6117   -0.7857 C.3       1 <0>         0.1370
     16 H2         -1.1825   -2.5968   -0.3995 H         1 <0>         0.0631
     17 C12        -2.8617   -1.6740   -1.3081 C.3       1 <0>        -0.1607
     18 C13        -3.2575   -0.4008   -2.0282 C.3       1 <0>        -0.1257
     19 C14        -2.2844   -0.1715   -3.1897 C.3       1 <0>        -0.1056
     20 C15        -0.8816    0.0267   -2.6205 C.3       1 <0>        -0.1413
     21 C16        -0.4213   -1.2243   -1.8693 C.3       1 <0>        -0.0905
     22 H3         -0.1889   -2.0508   -2.5409 H         1 <0>         0.0901
     23 C17         0.7912   -0.8095   -0.9803 C.3       1 <0>        -0.1101
     24 C18         0.1089   -0.1213    0.2228 C.3       1 <0>         0.0919
     25 H4          0.6390   -0.3660    1.1432 H         1 <0>         0.0738
     26 C19         0.0960    1.3719    0.0200 C.2       1 <0>         0.4680
     27 O3         -0.9494    1.9465   -0.1719 O.co2     1 <0>        -0.6103
     28 H5         -8.2395   -0.7920   -1.3036 H         1 <0>         0.0724
     29 H6         -7.5766   -2.3758   -0.8344 H         1 <0>         0.0658
     30 H7         -9.2019   -1.8950   -0.2908 H         1 <0>         0.0667
     31 H8         -9.4867   -0.2849    1.5019 H         1 <0>         0.1205
     32 H9         -8.5173    0.7249    3.5261 H         1 <0>         0.1275
     33 H10        -6.0842    0.6566    3.8937 H         1 <0>         0.1310
     34 H11        -5.5918   -1.4280    0.1955 H         1 <0>         0.1269
     35 H12        -4.2675   -2.9905    1.3756 H         1 <0>         0.0701
     36 H13        -2.6262   -2.8499    0.7013 H         1 <0>         0.0884
     37 H14        -2.8952   -2.6141    2.4449 H         1 <0>         0.0744
     38 H15        -2.9464   -2.5008   -2.0134 H         1 <0>         0.0753
     39 H16        -3.5424   -1.8461   -0.4744 H         1 <0>         0.0848
     40 H17        -3.2026    0.4366   -1.3327 H         1 <0>         0.0732
     41 H18        -4.2731   -0.4929   -2.4130 H         1 <0>         0.0588
     42 H19        -2.5822    0.7172   -3.7462 H         1 <0>         0.0586
     43 H20        -2.2921   -1.0388   -3.8498 H         1 <0>         0.0535
     44 H21        -0.8885    0.8746   -1.9356 H         1 <0>         0.1081
     45 H22        -0.1890    0.2304   -3.4371 H         1 <0>         0.0550
     46 H23         1.4377   -0.1101   -1.5102 H         1 <0>         0.0891
     47 H24         1.3516   -1.6868   -0.6571 H         1 <0>         0.0666
     48 O4          1.2465    2.0628    0.0470 O.co2     1 <0>        -0.7711
@<TRIPOS>BOND
     1    1    2 1
     2    1   28 1
     3    1   29 1
     4    1   30 1
     5    2    7 ar
     6    2    3 ar
     7    3    4 ar
     8    3   31 1
     9    4    5 ar
    10    4   32 1
    11    5    6 ar
    12    5   33 1
    13    6    7 ar
    14    6    8 1
    15    7   34 1
    16    8    9 1
    17    9   10 1
    18    9   11 1
    19    9   12 1
    20   11   35 1
    21   11   36 1
    22   11   37 1
    23   12   13 2
    24   12   14 am
    25   14   24 1
    26   14   15 1
    27   15   16 1
    28   15   21 1
    29   15   17 1
    30   17   18 1
    31   17   38 1
    32   17   39 1
    33   18   19 1
    34   18   40 1
    35   18   41 1
    36   19   20 1
    37   19   42 1
    38   19   43 1
    39   20   21 1
    40   20   44 1
    41   20   45 1
    42   21   22 1
    43   21   23 1
    44   23   24 1
    45   23   46 1
    46   23   47 1
    47   24   25 1
    48   24   26 1
    49   26   27 2
    50   26   48 1
