@<TRIPOS>MOLECULE
ZINC13261799
   41    42     0     0     0
SMALL
USER_CHARGES
1-(4-dimethylamino-3-nitro-benzoyl)piperidine-4-carboxylic acid
@<TRIPOS>ATOM
      1 C1          2.2328   -0.2795    0.3705 C.3       1 <0>         0.0278
      2 N1          2.3979    1.1113   -0.0725 N.pl3     1 <0>        -0.5056
      3 C2          3.0013    1.1695   -1.4106 C.3       1 <0>         0.0304
      4 C3          1.1852    1.7911   -0.0427 C.ar      1 <0>         0.1754
      5 C4          0.1170    1.3404   -0.8138 C.ar      1 <0>        -0.1601
      6 C5         -1.0823    2.0143   -0.7912 C.ar      1 <0>        -0.0315
      7 C6         -1.2313    3.1460    0.0162 C.ar      1 <0>        -0.1248
      8 C7         -0.1571    3.5960    0.7891 C.ar      1 <0>         0.0015
      9 C8          1.0419    2.9210    0.7575 C.ar      1 <0>        -0.0342
     10 N2          2.1799    3.3968    1.5756 N.pl3     1 <0>         0.0296
     11 O1          2.0552    4.3854    2.2761 O.2       1 <0>        -0.1906
     12 O2          3.2412    2.7997    1.5484 O.3       1 <0>        -0.1008
     13 C9         -2.5179    3.8672    0.0478 C.2       1 <0>         0.5584
     14 O3         -2.5336    5.0780    0.1590 O.2       1 <0>        -0.5317
     15 N3         -3.6758    3.1840   -0.0465 N.am      1 <0>        -0.5947
     16 C10        -4.9589    3.8943   -0.1352 C.3       1 <0>         0.1127
     17 C11        -5.8932    3.3718    0.9546 C.3       1 <0>        -0.1117
     18 C12        -6.0075    1.8501    0.8390 C.3       1 <0>        -0.1291
     19 C13        -4.6286    1.2167    1.0380 C.3       1 <0>        -0.1111
     20 C14        -3.6795    1.7148   -0.0565 C.3       1 <0>         0.0904
     21 C15        -6.9530    1.3360    1.8939 C.2       1 <0>         0.4648
     22 O4         -6.5642    0.5446    2.7199 O.co2     1 <0>        -0.6393
     23 H1          1.5299   -0.7896   -0.2882 H         1 <0>         0.0367
     24 H2          3.1962   -0.7881    0.3376 H         1 <0>         0.0853
     25 H3          1.8496   -0.2928    1.3909 H         1 <0>         0.0730
     26 H4          3.1769    2.2097   -1.6850 H         1 <0>         0.0708
     27 H5          3.9485    0.6302   -1.4057 H         1 <0>         0.0854
     28 H6          2.3263    0.7119   -2.1338 H         1 <0>         0.0355
     29 H7          0.2313    0.4634   -1.4336 H         1 <0>         0.1508
     30 H8         -1.9091    1.6668   -1.3928 H         1 <0>         0.1555
     31 H9         -0.2678    4.4726    1.4102 H         1 <0>         0.1654
     32 H10        -4.7958    4.9627    0.0067 H         1 <0>         0.0924
     33 H11        -5.4076    3.7177   -1.1128 H         1 <0>         0.0708
     34 H12        -6.8794    3.8208    0.8361 H         1 <0>         0.0859
     35 H13        -5.4893    3.6331    1.9327 H         1 <0>         0.0605
     36 H14        -6.3882    1.5885   -0.1482 H         1 <0>         0.0709
     37 H15        -4.7146    0.1317    0.9788 H         1 <0>         0.0777
     38 H16        -4.2365    1.4982    2.0153 H         1 <0>         0.0672
     39 H17        -4.0217    1.3569   -1.0275 H         1 <0>         0.0739
     40 H18        -2.6725    1.3456    0.1373 H         1 <0>         0.0851
     41 O5         -8.2273    1.7575    1.9159 O.co2     1 <0>        -0.7686
@<TRIPOS>BOND
     1    1    2 1
     2    1   23 1
     3    1   24 1
     4    1   25 1
     5    2    3 1
     6    2    4 1
     7    3   26 1
     8    3   27 1
     9    3   28 1
    10    4    9 ar
    11    4    5 ar
    12    5    6 ar
    13    5   29 1
    14    6    7 ar
    15    6   30 1
    16    7    8 ar
    17    7   13 1
    18    8    9 ar
    19    8   31 1
    20    9   10 1
    21   10   11 2
    22   10   12 1
    23   13   14 2
    24   13   15 am
    25   15   20 1
    26   15   16 1
    27   16   17 1
    28   16   32 1
    29   16   33 1
    30   17   18 1
    31   17   34 1
    32   17   35 1
    33   18   19 1
    34   18   21 1
    35   18   36 1
    36   19   20 1
    37   19   37 1
    38   19   38 1
    39   20   39 1
    40   20   40 1
    41   21   22 2
    42   21   41 1
