@<TRIPOS>MOLECULE
ZINC13138332
   54    58     0     0     0
SMALL
USER_CHARGES
4-[2,5-dimethyl-3-[(Z)-(2-oxo-1-phenyl-indolin-3-ylidene)methyl]pyrrol-1-yl]benzoic acid
@<TRIPOS>ATOM
      1 C1          3.3284    7.7669    2.0803 C.3       1 <0>        -0.0838
      2 C2          2.4526    8.1906    0.9294 C.2       1 <0>         0.0141
      3 C3          2.2396    9.4580    0.5398 C.2       1 <0>        -0.1202
      4 C4          1.3237    9.3955   -0.6079 C.2       1 <0>        -0.2001
      5 C5          1.0641    8.0527   -0.8150 C.2       1 <0>         0.0860
      6 N1          1.7518    7.3448    0.1141 N.pl3     1 <0>        -0.3823
      7 C6          1.7415    5.9521    0.2266 C.ar      1 <0>         0.0910
      8 C7          2.9082    5.2293    0.0009 C.ar      1 <0>        -0.1206
      9 C8          2.9021    3.8568    0.1114 C.ar      1 <0>        -0.0766
     10 C9          1.7214    3.1900    0.4507 C.ar      1 <0>        -0.0979
     11 C10         0.5497    3.9194    0.6716 C.ar      1 <0>        -0.0671
     12 C11         0.5648    5.2920    0.5645 C.ar      1 <0>        -0.1231
     13 C12         1.7106    1.7196    0.5695 C.2       1 <0>         0.4869
     14 O1          2.7288    1.0867    0.3723 O.co2     1 <0>        -0.6264
     15 C13         0.1724    7.4777   -1.8853 C.3       1 <0>        -0.0924
     16 C14         0.7950   10.5233   -1.3750 C.2       1 <0>         0.1048
     17 C15         0.4164   11.6786   -0.7285 C.2       1 <0>        -0.2024
     18 C16         0.0055   12.9616   -1.3433 C.ar      1 <0>        -0.0854
     19 C17        -0.1236   13.3894   -2.6601 C.ar      1 <0>        -0.0717
     20 C18        -0.5398   14.6790   -2.9232 C.ar      1 <0>        -0.1401
     21 C19        -0.8272   15.5424   -1.8791 C.ar      1 <0>        -0.0919
     22 C20        -0.7022   15.1274   -0.5689 C.ar      1 <0>        -0.1338
     23 C21        -0.2843   13.8320   -0.2842 C.ar      1 <0>         0.1438
     24 N2         -0.0786   13.1690    0.9212 N.am      1 <0>        -0.5089
     25 C22         0.3265   11.9034    0.7212 C.2       1 <0>         0.5577
     26 O2          0.5783   11.0868    1.5891 O.2       1 <0>        -0.4744
     27 C23        -0.2743   13.7453    2.1825 C.ar      1 <0>         0.1340
     28 C24        -1.5526   14.0955    2.5968 C.ar      1 <0>        -0.1146
     29 C25        -1.7429   14.6584    3.8436 C.ar      1 <0>        -0.1093
     30 C26        -0.6607   14.8843    4.6743 C.ar      1 <0>        -0.1161
     31 C27         0.6142   14.5419    4.2624 C.ar      1 <0>        -0.1078
     32 C28         0.8104   13.9730    3.0192 C.ar      1 <0>        -0.1038
     33 H1          4.3460    7.6081    1.7233 H         1 <0>         0.0682
     34 H2          3.3283    8.5457    2.8428 H         1 <0>         0.0767
     35 H3          2.9444    6.8404    2.5071 H         1 <0>         0.0664
     36 H4          2.6565   10.3491    0.9853 H         1 <0>         0.1381
     37 H5          3.8202    5.7452   -0.2609 H         1 <0>         0.1229
     38 H6          3.8083    3.2962   -0.0644 H         1 <0>         0.1367
     39 H7         -0.3654    3.4072    0.9297 H         1 <0>         0.1403
     40 H8         -0.3391    5.8566    0.7394 H         1 <0>         0.1221
     41 H9         -0.8459    7.3966   -1.5049 H         1 <0>         0.0773
     42 H10         0.1835    8.1315   -2.7574 H         1 <0>         0.0809
     43 H11         0.5346    6.4892   -2.1676 H         1 <0>         0.0739
     44 H12         0.7015   10.4497   -2.4484 H         1 <0>         0.1364
     45 H13         0.1004   12.7153   -3.4737 H         1 <0>         0.1278
     46 H14        -0.6417   15.0150   -3.9445 H         1 <0>         0.1273
     47 H15        -1.1519   16.5501   -2.0923 H         1 <0>         0.1276
     48 H16        -0.9292   15.8098    0.2368 H         1 <0>         0.1225
     49 H17        -2.3976   13.9238    1.9465 H         1 <0>         0.1258
     50 H18        -2.7374   14.9266    4.1683 H         1 <0>         0.1289
     51 H19        -0.8115   15.3288    5.6470 H         1 <0>         0.1269
     52 H20         1.4574   14.7193    4.9136 H         1 <0>         0.1293
     53 H21         1.8063   13.7058    2.6981 H         1 <0>         0.1251
     54 O3          0.5716    1.0785    0.8968 O.co2     1 <0>        -0.7487
@<TRIPOS>BOND
     1    1    2 1
     2    1   33 1
     3    1   34 1
     4    1   35 1
     5    2    6 1
     6    2    3 2
     7    3    4 1
     8    3   36 1
     9    4    5 2
    10    4   16 1
    11    5    6 1
    12    5   15 1
    13    6    7 1
    14    7   12 ar
    15    7    8 ar
    16    8    9 ar
    17    8   37 1
    18    9   10 ar
    19    9   38 1
    20   10   11 ar
    21   10   13 1
    22   11   12 ar
    23   11   39 1
    24   12   40 1
    25   13   14 2
    26   13   54 1
    27   15   41 1
    28   15   42 1
    29   15   43 1
    30   16   17 2
    31   16   44 1
    32   17   25 1
    33   17   18 1
    34   18   23 ar
    35   18   19 ar
    36   19   20 ar
    37   19   45 1
    38   20   21 ar
    39   20   46 1
    40   21   22 ar
    41   21   47 1
    42   22   23 ar
    43   22   48 1
    44   23   24 1
    45   24   25 am
    46   24   27 1
    47   25   26 2
    48   27   32 ar
    49   27   28 ar
    50   28   29 ar
    51   28   49 1
    52   29   30 ar
    53   29   50 1
    54   30   31 ar
    55   30   51 1
    56   31   32 ar
    57   31   52 1
    58   32   53 1
