@<TRIPOS>MOLECULE
ZINC38785284
   45    46     0     0     0
SMALL
USER_CHARGES

@<TRIPOS>ATOM
      1 C1         -0.0187    1.5258    0.0104 C.3       1 <0>        -0.1745
      2 C2          0.0021   -0.0041    0.0020 C.3       1 <0>         0.1065
      3 N1         -1.3723   -0.5112    0.0124 N.am      1 <0>        -0.6244
      4 C3         -2.0716   -0.7579   -1.2510 C.3       1 <0>         0.1363
      5 C4         -1.8159   -2.1971   -1.7029 C.3       1 <0>        -0.0764
      6 H1         -0.7513   -2.3853   -1.8417 H         1 <0>         0.1073
      7 C5         -2.6261   -2.5450   -2.9794 C.3       1 <0>        -0.0862
      8 C6         -3.1465   -3.9448   -2.9118 C.2       1 <0>        -0.1794
      9 C7         -3.2087   -4.5662   -1.7481 C.2       1 <0>        -0.0688
     10 S1         -2.5714   -3.4135   -0.5436 S.3       1 <0>        -0.0903
     11 Cl1        -3.7910   -6.1744   -1.4507 Cl        1 <0>        -0.0131
     12 C8         -1.9934   -0.7507    1.1843 C.2       1 <0>         0.5145
     13 O1         -3.1312   -1.1705    1.1929 O.2       1 <0>        -0.5098
     14 C9         -1.2740   -0.4969    2.4840 C.3       1 <0>        -0.1243
     15 C10        -2.1957   -0.8473    3.6539 C.3       1 <0>        -0.0195
     16 C11        -1.4763   -0.5934    4.9536 C.ar      1 <0>        -0.2958
     17 C12        -0.7231   -1.5875    5.5502 C.ar      1 <0>         0.1772
     18 N2         -0.1031   -1.3329    6.6922 N.ar      1 <0>        -0.5815
     19 C13        -0.1965   -0.1417    7.2661 C.ar      1 <0>         0.3319
     20 N3         -0.9090    0.8361    6.7252 N.ar      1 <0>        -0.5996
     21 C14        -1.5508    0.6507    5.5781 C.ar      1 <0>         0.4522
     22 O2         -2.2730    1.6550    5.0248 O.3       1 <0>        -0.6863
     23 S2          0.6469    0.1487    8.7857 S.3       1 <0>        -0.0603
     24 C15         0.2442    1.8709    9.1890 C.3       1 <0>         0.2924
     25 F1          0.6995    2.7084    8.1650 F         1 <0>        -0.1773
     26 F2         -1.1419    2.0070    9.3211 F         1 <0>        -0.1767
     27 C16        -0.6093   -2.9462    4.9082 C.3       1 <0>        -0.0949
     28 H2          1.0039    1.9031    0.0027 H         1 <0>         0.0663
     29 H3         -0.5459    1.8868   -0.8726 H         1 <0>         0.0558
     30 H4         -0.5289    1.8773    0.9072 H         1 <0>         0.0652
     31 H5          0.5123   -0.3556   -0.8948 H         1 <0>         0.0749
     32 H6          0.5293   -0.3651    0.8851 H         1 <0>         0.0830
     33 H7         -3.1417   -0.6062   -1.1097 H         1 <0>         0.0967
     34 H8         -1.7041   -0.0678   -2.0105 H         1 <0>         0.0917
     35 H9         -3.4645   -1.8545   -3.0717 H         1 <0>         0.0992
     36 H10        -1.9816   -2.4434   -3.8525 H         1 <0>         0.0930
     37 H11        -3.4707   -4.4462   -3.8117 H         1 <0>         0.1346
     38 H12        -0.3776   -1.1152    2.5299 H         1 <0>         0.0817
     39 H13        -0.9936    0.5547    2.5447 H         1 <0>         0.0931
     40 H14        -3.0921   -0.2289    3.6080 H         1 <0>         0.0741
     41 H15        -2.4761   -1.8988    3.5932 H         1 <0>         0.0609
     42 H16         0.7273    2.1471   10.1262 H         1 <0>         0.1431
     43 H17         0.2463   -2.9585    4.2331 H         1 <0>         0.0673
     44 H18        -0.4734   -3.7029    5.6808 H         1 <0>         0.0673
     45 H19        -1.5186   -3.1598    4.3463 H         1 <0>         0.0728
@<TRIPOS>BOND
     1    1    2 1
     2    1   28 1
     3    1   29 1
     4    1   30 1
     5    2    3 1
     6    2   31 1
     7    2   32 1
     8    3    4 1
     9    3   12 am
    10    4    5 1
    11    4   33 1
    12    4   34 1
    13    5    6 1
    14    5   10 1
    15    5    7 1
    16    7    8 1
    17    7   35 1
    18    7   36 1
    19    8    9 2
    20    8   37 1
    21    9   10 1
    22    9   11 1
    23   12   13 2
    24   12   14 1
    25   14   15 1
    26   14   38 1
    27   14   39 1
    28   15   40 1
    29   15   41 1
    30   15   16 1
    31   16   21 ar
    32   16   17 ar
    33   17   18 ar
    34   17   27 1
    35   18   19 ar
    36   19   23 1
    37   19   20 ar
    38   20   21 ar
    39   21   22 1
    40   23   24 1
    41   24   25 1
    42   24   26 1
    43   24   42 1
    44   27   43 1
    45   27   44 1
    46   27   45 1
