@<TRIPOS>MOLECULE
ZINC13406840
   39    40     0     0     0
SMALL
USER_CHARGES
(3S)-1-[2-(1-isopropyltetrazol-5-yl)sulfanylacetyl]piperidine-3-carboxylic acid
@<TRIPOS>ATOM
      1 C1         -4.1032   11.7944   -0.6319 C.3       1 <0>        -0.1627
      2 C2         -3.5176   11.0183   -1.8132 C.3       1 <0>         0.1433
      3 C3         -3.9261   11.6971   -3.1222 C.3       1 <0>        -0.1625
      4 N1         -2.0564   10.9988   -1.7086 N.pl3     1 <0>        -0.3568
      5 C4         -1.2538    9.9130   -1.6091 C.2       1 <0>         0.1993
      6 N2         -0.0163   10.3525   -1.5333 N.2       1 <0>        -0.3389
      7 N3          0.0095   11.6353   -1.5879 N.2       1 <0>        -0.0351
      8 N4         -1.1871   12.1035   -1.6908 N.2       1 <0>        -0.0816
      9 S1         -1.7702    8.2286   -1.5791 S.3       1 <0>         0.1131
     10 C5         -0.1627    7.4096   -1.4333 C.3       1 <0>        -0.1494
     11 C6         -0.3619    5.9165   -1.3885 C.2       1 <0>         0.5292
     12 O1         -1.4805    5.4518   -1.4492 O.2       1 <0>        -0.5279
     13 N5          0.7031    5.0975   -1.2810 N.am      1 <0>        -0.5968
     14 C7          2.0643    5.6454   -1.2065 C.3       1 <0>         0.1017
     15 C8          2.7571    5.0775    0.0361 C.3       1 <0>        -0.1358
     16 C9          2.6963    3.5488   -0.0046 C.3       1 <0>        -0.0980
     17 C10         1.2350    3.0943    0.0069 C.3       1 <0>        -0.1411
     18 H1          0.7432    3.4730    0.9029 H         1 <0>         0.0724
     19 C11         0.5249    3.6398   -1.2361 C.3       1 <0>         0.1357
     20 C12         1.1765    1.5884   -0.0006 C.2       1 <0>         0.4673
     21 O2          2.1986    0.9442   -0.0139 O.co2     1 <0>        -0.6353
     22 H2         -3.7243   12.8163   -0.6449 H         1 <0>         0.0739
     23 H3         -5.1903   11.8089   -0.7097 H         1 <0>         0.0871
     24 H4         -3.8121   11.3108    0.3006 H         1 <0>         0.0667
     25 H5         -3.8964    9.9964   -1.8002 H         1 <0>         0.1154
     26 H6         -3.5089   11.1442   -3.9638 H         1 <0>         0.0663
     27 H7         -5.0133   11.7116   -3.2000 H         1 <0>         0.0869
     28 H8         -3.5473   12.7190   -3.1352 H         1 <0>         0.0740
     29 H9          0.3308    7.7379   -0.5186 H         1 <0>         0.1302
     30 H10         0.4560    7.6680   -2.2927 H         1 <0>         0.1296
     31 H11         2.0174    6.7320   -1.1342 H         1 <0>         0.0820
     32 H12         2.6223    5.3603   -2.0984 H         1 <0>         0.0745
     33 H13         2.2509    5.4380    0.9316 H         1 <0>         0.0637
     34 H14         3.7983    5.3998    0.0515 H         1 <0>         0.0736
     35 H15         3.2101    3.1416    0.8661 H         1 <0>         0.0669
     36 H16         3.1810    3.1902   -0.9127 H         1 <0>         0.0642
     37 H17         0.9574    3.1910   -2.1304 H         1 <0>         0.0673
     38 H18        -0.5377    3.4030   -1.1833 H         1 <0>         0.1018
     39 O3         -0.0110    0.9628    0.0073 O.co2     1 <0>        -0.7643
@<TRIPOS>BOND
     1    1    2 1
     2    1   22 1
     3    1   23 1
     4    1   24 1
     5    2    3 1
     6    2    4 1
     7    2   25 1
     8    3   26 1
     9    3   27 1
    10    3   28 1
    11    4    8 1
    12    4    5 1
    13    5    6 2
    14    5    9 1
    15    6    7 1
    16    7    8 2
    17    9   10 1
    18   10   11 1
    19   10   29 1
    20   10   30 1
    21   11   12 2
    22   11   13 am
    23   13   19 1
    24   13   14 1
    25   14   15 1
    26   14   31 1
    27   14   32 1
    28   15   16 1
    29   15   33 1
    30   15   34 1
    31   16   17 1
    32   16   35 1
    33   16   36 1
    34   17   18 1
    35   17   19 1
    36   17   20 1
    37   19   37 1
    38   19   38 1
    39   20   21 2
    40   20   39 1
