@<TRIPOS>MOLECULE
ZINC61863621
   40    41     0     0     0
SMALL
USER_CHARGES

@<TRIPOS>ATOM
      1 C1         -0.2114    1.9852    0.8502 C.3       1 <0>        -0.1628
      2 C2         -0.1438    0.5274    0.3906 C.3       1 <0>         0.0901
      3 H1         -1.1499    0.1098    0.3509 H         1 <0>         0.1589
      4 C3          0.4970    0.4562   -0.9990 C.3       1 <0>        -0.1216
      5 C4          1.9535    0.9174   -0.9089 C.3       1 <0>        -0.1234
      6 C5          2.7277   -0.0124    0.0283 C.3       1 <0>        -0.1293
      7 C6          2.1121    0.0535    1.4296 C.3       1 <0>         0.1416
      8 H2          2.2479    1.0535    1.8417 H         1 <0>         0.0697
      9 N1          0.6747   -0.2484    1.3324 N.am      1 <0>        -0.5853
     10 C7          0.1201   -1.2170    2.0878 C.2       1 <0>         0.5788
     11 O1          0.7790   -1.7708    2.9454 O.2       1 <0>        -0.5332
     12 C8         -1.2937   -1.6068    1.8723 C.ar      1 <0>         0.0494
     13 C9         -1.9901   -2.2569    2.8901 C.ar      1 <0>        -0.1043
     14 C10        -3.3090   -2.6172    2.6824 C.ar      1 <0>        -0.0836
     15 C11        -3.8958   -2.3111    1.4463 C.ar      1 <0>        -0.0515
     16 C12        -3.1291   -1.6557    0.4739 C.ar      1 <0>         0.0881
     17 N2         -1.8807   -1.3269    0.7147 N.ar      1 <0>        -0.4453
     18 C13        -5.2961   -2.6732    1.1743 C.2       1 <0>        -0.1283
     19 C14        -5.8512   -2.3735   -0.0197 C.2       1 <0>        -0.1409
     20 C15        -7.2008   -2.7225   -0.2819 C.2       1 <0>         0.4979
     21 O2         -7.8626   -3.2956    0.5745 O.co2     1 <0>        -0.6898
     22 O3         -7.7043   -2.4507   -1.3647 O.co2     1 <0>        -0.6925
     23 C16         2.7931   -0.9723    2.3377 C.3       1 <0>        -0.1393
     24 H3          0.7954    2.4009    0.8892 H         1 <0>         0.0540
     25 H4         -0.8148    2.5600    0.1476 H         1 <0>         0.0666
     26 H5         -0.6631    2.0333    1.8410 H         1 <0>         0.0527
     27 H6          0.4624   -0.5705   -1.3634 H         1 <0>         0.0676
     28 H7         -0.0482    1.1047   -1.6847 H         1 <0>         0.0724
     29 H8          2.4048    0.8911   -1.9007 H         1 <0>         0.0622
     30 H9          1.9887    1.9354   -0.5210 H         1 <0>         0.0639
     31 H10         2.6721   -1.0347   -0.3458 H         1 <0>         0.0663
     32 H11         3.7702    0.3027    0.0738 H         1 <0>         0.0713
     33 H12        -1.5051   -2.4769    3.8296 H         1 <0>         0.1438
     34 H13        -3.8727   -3.1222    3.4529 H         1 <0>         0.1446
     35 H14        -3.5704   -1.4151   -0.4820 H         1 <0>         0.1679
     36 H15        -5.8797   -3.1786    1.9295 H         1 <0>         0.1350
     37 H16        -5.2677   -1.8681   -0.7749 H         1 <0>         0.1037
     38 H17         3.8734   -0.8326    2.2977 H         1 <0>         0.0435
     39 H18         2.4470   -0.8369    3.3624 H         1 <0>         0.0755
     40 H19         2.5442   -1.9784    2.0001 H         1 <0>         0.0656
@<TRIPOS>BOND
     1    1    2 1
     2    1   24 1
     3    1   25 1
     4    1   26 1
     5    2    3 1
     6    2    9 1
     7    2    4 1
     8    4    5 1
     9    4   27 1
    10    4   28 1
    11    5    6 1
    12    5   29 1
    13    5   30 1
    14    6    7 1
    15    6   31 1
    16    6   32 1
    17    7    8 1
    18    7    9 1
    19    7   23 1
    20    9   10 am
    21   10   11 2
    22   10   12 1
    23   12   17 ar
    24   12   13 ar
    25   13   14 ar
    26   13   33 1
    27   14   15 ar
    28   14   34 1
    29   15   16 ar
    30   15   18 1
    31   16   17 ar
    32   16   35 1
    33   18   19 2
    34   18   36 1
    35   19   20 1
    36   19   37 1
    37   20   21 2
    38   20   22 1
    39   23   38 1
    40   23   39 1
    41   23   40 1
