@<TRIPOS>MOLECULE
ZINC41035874
   45    46     0     0     0
SMALL
USER_CHARGES

@<TRIPOS>ATOM
      1 C1          2.2761    1.5156    3.5101 C.3       1 <0>        -0.1506
      2 C2          2.2841   -0.0143    3.4967 C.3       1 <0>        -0.0867
      3 H1          2.9628   -0.3809    4.2668 H         1 <0>         0.0567
      4 C3          2.7518   -0.5098    2.1268 C.3       1 <0>        -0.1099
      5 C4          1.7992    0.0047    1.0458 C.3       1 <0>        -0.1185
      6 C5          0.3868   -0.5151    1.3212 C.3       1 <0>        -0.1061
      7 C6         -0.0809   -0.0196    2.6911 C.3       1 <0>         0.1292
      8 C7          0.8717   -0.5341    3.7721 C.3       1 <0>        -0.1083
      9 C8         -1.4721   -0.5316    2.9623 C.2       1 <0>         0.5001
     10 O1         -1.6843   -1.7318    2.9950 O.co2     1 <0>        -0.7036
     11 O2         -2.3853    0.2543    3.1491 O.co2     1 <0>        -0.6762
     12 N1         -0.0886    1.4453    2.7039 N.am      1 <0>        -0.7141
     13 C9         -0.4905    2.1074    3.8069 C.2       1 <0>         0.7213
     14 O3         -0.7495    1.4935    4.8239 O.2       1 <0>        -0.5722
     15 N2         -0.6054    3.4501    3.7825 N.am      1 <0>        -0.6302
     16 C10        -0.1959    4.1591    2.5909 C.3       1 <0>         0.1176
     17 C11         1.3058    4.5232    2.6933 C.3       1 <0>        -0.1573
     18 C12         1.5074    5.5839    3.6922 C.3       1 <0>        -0.1092
     19 C13         1.1164    5.1912    5.1136 C.3       1 <0>        -0.1152
     20 C14        -0.3625    5.4197    5.3067 C.3       1 <0>        -0.1289
     21 C15        -1.1496    4.1354    4.9712 C.3       1 <0>         0.1327
     22 H2          1.7516    1.8684    4.3981 H         1 <0>         0.0533
     23 H3          3.3018    1.8842    3.5235 H         1 <0>         0.0298
     24 H4          1.7692    1.8842    2.6183 H         1 <0>         0.0757
     25 H5          3.7580   -0.1395    1.9306 H         1 <0>         0.0517
     26 H6          2.7575   -1.5998    2.1172 H         1 <0>         0.0596
     27 H7          1.7935    1.0947    1.0554 H         1 <0>         0.0567
     28 H8          2.1324   -0.3483    0.0698 H         1 <0>         0.0557
     29 H9         -0.2919   -0.1486    0.5510 H         1 <0>         0.0563
     30 H10         0.3925   -1.6051    1.3116 H         1 <0>         0.0801
     31 H11         0.8774   -1.6241    3.7625 H         1 <0>         0.0643
     32 H12         0.5385   -0.1811    4.7480 H         1 <0>         0.0802
     33 H13         0.1956    1.9387    1.9187 H         1 <0>         0.3788
     34 H14        -0.3573    3.5261    1.7184 H         1 <0>         0.0678
     35 H15        -0.7845    5.0711    2.4910 H         1 <0>         0.0710
     36 H16         1.8721    3.6392    2.9864 H         1 <0>         0.0795
     37 H17         1.6600    4.8698    1.7224 H         1 <0>         0.0667
     38 H18         2.5600    5.8672    3.6885 H         1 <0>         0.0514
     39 H19         0.9179    6.4524    3.3985 H         1 <0>         0.0544
     40 H20         1.3459    4.1381    5.2761 H         1 <0>         0.0688
     41 H21         1.6743    5.7994    5.8255 H         1 <0>         0.0563
     42 H22        -0.5527    5.6999    6.3428 H         1 <0>         0.0693
     43 H23        -0.6927    6.2246    4.6501 H         1 <0>         0.0603
     44 H24        -2.1921    4.3933    4.7847 H         1 <0>         0.0529
     45 H25        -1.1015    3.4576    5.8235 H         1 <0>         0.0888
@<TRIPOS>BOND
     1    1    2 1
     2    1   22 1
     3    1   23 1
     4    1   24 1
     5    2    3 1
     6    2    8 1
     7    2    4 1
     8    4    5 1
     9    4   25 1
    10    4   26 1
    11    5    6 1
    12    5   27 1
    13    5   28 1
    14    6    7 1
    15    6   29 1
    16    6   30 1
    17    7    8 1
    18    7    9 1
    19    7   12 1
    20    8   31 1
    21    8   32 1
    22    9   10 2
    23    9   11 1
    24   12   13 am
    25   12   33 1
    26   13   14 2
    27   13   15 am
    28   15   21 1
    29   15   16 1
    30   16   17 1
    31   16   34 1
    32   16   35 1
    33   17   18 1
    34   17   36 1
    35   17   37 1
    36   18   19 1
    37   18   38 1
    38   18   39 1
    39   19   20 1
    40   19   40 1
    41   19   41 1
    42   20   21 1
    43   20   42 1
    44   20   43 1
    45   21   44 1
    46   21   45 1
