@<TRIPOS>MOLECULE
ZINC42137321
   30    31     0     0     0
SMALL
USER_CHARGES

@<TRIPOS>ATOM
      1 C1         -0.0280    1.5026    0.0113 C.3       1 <0>        -0.1100
      2 C2         -0.0025   -0.0041    0.0025 C.ar      1 <0>        -0.0247
      3 C3         -0.1018   -0.7076   -1.1840 C.ar      1 <0>        -0.1619
      4 C4         -0.0755   -2.0915   -1.1610 C.ar      1 <0>         0.1092
      5 N1          0.0421   -2.7547   -0.0278 N.ar      1 <0>        -0.4324
      6 C5          0.1408   -2.1331    1.1375 C.ar      1 <0>         0.0611
      7 C6          0.1281   -0.7271    1.1959 C.ar      1 <0>        -0.1198
      8 C7          0.2440   -0.0298    2.4852 C.2       1 <0>         0.5245
      9 O1         -0.7531    0.1646    3.1673 O.co2     1 <0>        -0.6676
     10 O2          1.3374    0.3561    2.8760 O.co2     1 <0>        -0.6676
     11 S1          0.2959   -3.0709    2.6211 S.3       1 <0>         0.2678
     12 C8          0.2730   -4.7449    2.0716 C.ar      1 <0>         0.2976
     13 N2          0.1614   -4.9987    0.7760 N.ar      1 <0>        -0.4503
     14 C9          0.1415   -6.2438    0.3303 C.ar      1 <0>         0.2334
     15 C10         0.2391   -7.2881    1.2367 C.ar      1 <0>        -0.1951
     16 C11         0.3547   -6.9868    2.5849 C.ar      1 <0>         0.2383
     17 N3          0.3733   -5.7197    2.9634 N.ar      1 <0>        -0.4962
     18 N4          0.2199   -8.6944    0.7751 N.pl3     1 <0>         0.0537
     19 O3          0.1181   -8.9423   -0.4038 O.2       1 <0>        -0.1608
     20 O4          0.3059   -9.5951    1.5770 O.3       1 <0>        -0.1622
     21 C12        -0.1839   -2.8544   -2.4561 C.3       1 <0>        -0.0905
     22 H1          0.9934    1.8833    0.0079 H         1 <0>         0.0772
     23 H2         -0.5527    1.8623   -0.8738 H         1 <0>         0.0656
     24 H3         -0.5430    1.8521    0.9061 H         1 <0>         0.0782
     25 H4         -0.1994   -0.1810   -2.1219 H         1 <0>         0.1319
     26 H5          0.0499   -6.4445   -0.7270 H         1 <0>         0.1918
     27 H6          0.4326   -7.7771    3.3169 H         1 <0>         0.1959
     28 H7          0.8130   -3.0205   -2.8645 H         1 <0>         0.0712
     29 H8         -0.6661   -3.8146   -2.2729 H         1 <0>         0.0726
     30 H9         -0.7769   -2.2799   -3.1676 H         1 <0>         0.0690
@<TRIPOS>BOND
     1    1    2 1
     2    1   22 1
     3    1   23 1
     4    1   24 1
     5    2    7 ar
     6    2    3 ar
     7    3    4 ar
     8    3   25 1
     9    4    5 ar
    10    4   21 1
    11    5    6 ar
    12    6    7 ar
    13    6   11 1
    14    7    8 1
    15    8    9 2
    16    8   10 1
    17   11   12 1
    18   12   17 ar
    19   12   13 ar
    20   13   14 ar
    21   14   15 ar
    22   14   26 1
    23   15   16 ar
    24   15   18 1
    25   16   17 ar
    26   16   27 1
    27   18   19 2
    28   18   20 1
    29   21   28 1
    30   21   29 1
    31   21   30 1
