@<TRIPOS>MOLECULE
ZINC64952348
   37    39     0     0     0
SMALL
USER_CHARGES

@<TRIPOS>ATOM
      1 C1         -0.0173    1.4248    0.0099 C.3       1 <0>         0.0352
      2 O1          0.0021   -0.0041    0.0020 O.3       1 <0>        -0.3304
      3 C2         -1.2012   -0.6379    0.0101 C.ar      1 <0>         0.0167
      4 C3         -2.3743    0.1020    0.0196 C.ar      1 <0>        -0.1566
      5 C4         -3.5966   -0.5409    0.0278 C.ar      1 <0>        -0.1461
      6 C5         -3.6509   -1.9284    0.0266 C.ar      1 <0>         0.2501
      7 C6         -2.4759   -2.6684    0.0171 C.ar      1 <0>        -0.2292
      8 C7         -1.2545   -2.0239    0.0032 C.ar      1 <0>        -0.0899
      9 N1         -4.8890   -2.5806    0.0353 N.2       1 <0>        -1.0852
     10 S1         -4.9532   -4.2354    0.0339 S.o2      1 <0>         2.6206
     11 O2         -4.4281   -4.6611   -1.2160 O.2       1 <0>        -1.0132
     12 O3         -4.4089   -4.6640    1.2746 O.2       1 <0>        -1.0178
     13 C8         -6.6553   -4.6907    0.0465 C.2       1 <0>        -0.7096
     14 C9         -7.4660   -4.9099   -1.0176 C.2       1 <0>        -0.0777
     15 C10        -8.7771   -5.2610   -0.7983 C.2       1 <0>        -0.0759
     16 C11        -9.1583   -5.3609    0.5343 C.2       1 <0>        -0.2025
     17 S2         -7.6412   -4.9594    1.3799 S.3       1 <0>         0.3562
     18 C12       -10.4218   -5.6979    1.0788 C.2       1 <0>         0.2314
     19 N2        -11.5129   -5.9967    0.4187 N.2       1 <0>        -0.3088
     20 N3        -12.5778   -6.2781    1.2684 N.2       1 <0>        -0.2206
     21 C13       -12.2543   -6.1824    2.5172 C.2       1 <0>        -0.0137
     22 C14       -10.7897   -5.7941    2.5463 C.3       1 <0>        -0.1471
     23 C15       -13.1521   -6.4164    3.7048 C.3       1 <0>         0.5554
     24 F1        -14.4319   -6.7651    3.2603 F         1 <0>        -0.1575
     25 F2        -12.6311   -7.4534    4.4860 F         1 <0>        -0.1621
     26 F3        -13.2266   -5.2479    4.4704 F         1 <0>        -0.1616
     27 H1          1.0053    1.8021    0.0021 H         1 <0>         0.0858
     28 H2         -0.5445    1.7859   -0.8732 H         1 <0>         0.0458
     29 H3         -0.5275    1.7763    0.9067 H         1 <0>         0.0459
     30 H4         -2.3319    1.1812    0.0208 H         1 <0>         0.1130
     31 H5         -4.5100    0.0354    0.0355 H         1 <0>         0.1168
     32 H6         -2.5172   -3.7476    0.0162 H         1 <0>         0.1038
     33 H7         -0.3406   -2.5992   -0.0090 H         1 <0>         0.1130
     34 H8         -7.0873   -4.8097   -2.0240 H         1 <0>         0.1528
     35 H9         -9.4660   -5.4467   -1.6091 H         1 <0>         0.1559
     36 H10       -10.1964   -6.5628    3.0414 H         1 <0>         0.1535
     37 H11       -10.6596   -4.8304    3.0388 H         1 <0>         0.1537
@<TRIPOS>BOND
     1    1    2 1
     2    1   27 1
     3    1   28 1
     4    1   29 1
     5    2    3 1
     6    3    8 ar
     7    3    4 ar
     8    4    5 ar
     9    4   30 1
    10    5    6 ar
    11    5   31 1
    12    6    7 ar
    13    6    9 1
    14    7    8 ar
    15    7   32 1
    16    8   33 1
    17    9   10 1
    18   10   11 2
    19   10   12 2
    20   10   13 1
    21   13   17 1
    22   13   14 2
    23   14   15 1
    24   14   34 1
    25   15   16 2
    26   15   35 1
    27   16   17 1
    28   16   18 1
    29   18   22 1
    30   18   19 2
    31   19   20 1
    32   20   21 2
    33   21   22 1
    34   21   23 1
    35   22   36 1
    36   22   37 1
    37   23   24 1
    38   23   25 1
    39   23   26 1
