@<TRIPOS>MOLECULE
ZINC33619262
   42    44     0     0     0
SMALL
USER_CHARGES
3-[3-(methanesulfonamido)phenyl]-5-methyl-1-phenyl-pyrazole-4-carboxylic acid
@<TRIPOS>ATOM
      1 C1         -4.0747   -0.0282    9.4090 C.3       1 <0>        -0.0870
      2 C2         -3.3732    0.0551    8.0779 C.2       1 <0>         0.0789
      3 C3         -3.9213    0.5157    6.8976 C.2       1 <0>        -0.2018
      4 C4         -2.8680    0.4074    5.8825 C.2       1 <0>         0.1305
      5 N1         -1.8087   -0.0905    6.4794 N.2       1 <0>        -0.2871
      6 N2         -2.1028   -0.3062    7.8287 N.pl3     1 <0>        -0.3316
      7 C5         -1.2110   -0.8261    8.7759 C.ar      1 <0>         0.1686
      8 C6          0.1086   -0.3945    8.7995 C.ar      1 <0>        -0.1145
      9 C7          0.9839   -0.9051    9.7379 C.ar      1 <0>        -0.1035
     10 C8          0.5502   -1.8532   10.6463 C.ar      1 <0>        -0.1299
     11 C9         -0.7620   -2.2889   10.6220 C.ar      1 <0>        -0.1002
     12 C10        -1.6435   -1.7784    9.6894 C.ar      1 <0>        -0.1316
     13 C11        -2.9795    0.7827    4.4525 C.ar      1 <0>         0.0033
     14 C12        -4.1820    0.5940    3.7719 C.ar      1 <0>        -0.0689
     15 C13        -4.2842    0.9434    2.4405 C.ar      1 <0>        -0.1116
     16 C14        -3.1987    1.4858    1.7786 C.ar      1 <0>        -0.0973
     17 C15        -1.9947    1.6725    2.4472 C.ar      1 <0>         0.1070
     18 C16        -1.8837    1.3240    3.7852 C.ar      1 <0>        -0.0917
     19 N3         -0.8985    2.2164    1.7735 N.pl3     1 <0>        -1.0721
     20 S1         -0.0414    1.2888    0.7023 S.o2      1 <0>         2.6141
     21 O1          0.9938    2.1411    0.2320 O.2       1 <0>        -0.9646
     22 O2         -1.0174    0.7727   -0.1923 O.2       1 <0>        -0.9535
     23 C17         0.6595   -0.0518    1.7034 C.3       1 <0>        -0.6747
     24 C18        -5.2904    1.0157    6.6974 C.2       1 <0>         0.5287
     25 O3         -6.1783    0.2471    6.3838 O.co2     1 <0>        -0.6277
     26 O4         -5.5602    2.3259    6.8617 O.co2     1 <0>        -0.7471
     27 H1         -5.1065    0.3382    9.3033 H         1 <0>         0.0926
     28 H2         -3.5396    0.5901   10.1448 H         1 <0>         0.0727
     29 H3         -4.0901   -1.0737    9.7505 H         1 <0>         0.0721
     30 H4          0.4490    0.3427    8.0874 H         1 <0>         0.1299
     31 H5          2.0093   -0.5668    9.7594 H         1 <0>         0.1281
     32 H6          1.2376   -2.2540   11.3765 H         1 <0>         0.1252
     33 H7         -1.0977   -3.0295   11.3328 H         1 <0>         0.1299
     34 H8         -2.6682   -2.1191    9.6709 H         1 <0>         0.1331
     35 H9         -5.0336    0.1740    4.2866 H         1 <0>         0.1466
     36 H10        -5.2165    0.7968    1.9154 H         1 <0>         0.1339
     37 H11        -3.2852    1.7616    0.7380 H         1 <0>         0.1340
     38 H12        -0.9503    1.4725    4.3079 H         1 <0>         0.1296
     39 H13        -0.6046    3.2608    1.9545 H         1 <0>         0.4478
     40 H14         1.2500   -0.7201    1.0594 H         1 <0>         0.1282
     41 H15        -0.1548   -0.6218    2.1746 H         1 <0>         0.1319
     42 H16         1.3083    0.3736    2.4832 H         1 <0>         0.1297
@<TRIPOS>BOND
     1    1    2 1
     2    1   27 1
     3    1   28 1
     4    1   29 1
     5    2    6 1
     6    2    3 2
     7    3    4 1
     8    3   24 1
     9    4    5 2
    10    4   13 1
    11    5    6 1
    12    6    7 1
    13    7   12 ar
    14    7    8 ar
    15    8    9 ar
    16    8   30 1
    17    9   10 ar
    18    9   31 1
    19   10   11 ar
    20   10   32 1
    21   11   12 ar
    22   11   33 1
    23   12   34 1
    24   13   18 ar
    25   13   14 ar
    26   14   15 ar
    27   14   35 1
    28   15   16 ar
    29   15   36 1
    30   16   17 ar
    31   16   37 1
    32   17   18 ar
    33   17   19 1
    34   18   38 1
    35   19   20 1
    36   19   39 1
    37   20   21 2
    38   20   22 2
    39   20   23 1
    40   23   40 1
    41   23   41 1
    42   23   42 1
    43   24   25 2
    44   24   26 1
