@<TRIPOS>MOLECULE
ZINC52095925
   33    35     0     0     0
SMALL
USER_CHARGES

@<TRIPOS>ATOM
      1 C1         -0.0178    1.4608    0.0101 C.3       1 <0>         0.0636
      2 N1          0.0021   -0.0041    0.0020 N.pl3     1 <0>        -0.4538
      3 C2          0.0081   -0.8102   -1.1042 C.2       1 <0>         0.0699
      4 C3          0.0282   -2.0813   -0.6599 C.2       1 <0>        -0.5624
      5 N2          0.0342   -2.0521    0.6810 N.2       1 <0>        -0.4163
      6 C4          0.0238   -0.8111    1.0845 C.2       1 <0>         0.1908
      7 S1          0.0437   -3.5291   -1.6641 S.o2      1 <0>         2.7342
      8 O1         -1.3047   -3.9648   -1.7694 O.2       1 <0>        -0.9364
      9 O2          0.8371   -3.2248   -2.8031 O.2       1 <0>        -0.9442
     10 N3          0.8554   -4.7009   -0.8213 N.pl3     1 <0>        -0.9260
     11 C5          2.3005   -4.9340   -0.8877 C.3       1 <0>         0.1159
     12 C6          2.5628   -6.1136    0.0627 C.3       1 <0>        -0.0722
     13 C7          1.1994   -6.4692    0.6123 C.ar      1 <0>        -0.1883
     14 C8          0.2635   -5.6067    0.0605 C.ar      1 <0>         0.2151
     15 C9         -1.0770   -5.7374    0.4238 C.ar      1 <0>        -0.2247
     16 C10        -1.4626   -6.7143    1.3273 C.ar      1 <0>         0.2463
     17 C11        -0.5141   -7.5688    1.8758 C.ar      1 <0>        -0.2189
     18 C12         0.8123   -7.4463    1.5097 C.ar      1 <0>        -0.0302
     19 N4         -2.8061   -6.8401    1.6876 N.pl3     1 <0>        -0.8755
     20 H1          1.0048    1.8381    0.0023 H         1 <0>         0.0869
     21 H2         -0.5450    1.8219   -0.8730 H         1 <0>         0.0934
     22 H3         -0.5280    1.8123    0.9069 H         1 <0>         0.0965
     23 H4         -0.0017   -0.4887   -2.1352 H         1 <0>         0.1934
     24 H5          0.0290   -0.4838    2.1137 H         1 <0>         0.2173
     25 H6          2.5951   -5.1946   -1.9042 H         1 <0>         0.0891
     26 H7          2.8419   -4.0498   -0.5513 H         1 <0>         0.0798
     27 H8          2.9838   -6.9568   -0.4850 H         1 <0>         0.0864
     28 H9          3.2308   -5.8110    0.8691 H         1 <0>         0.0850
     29 H10        -1.8167   -5.0746   -0.0004 H         1 <0>         0.1396
     30 H11        -0.8137   -8.3302    2.5807 H         1 <0>         0.1230
     31 H12         1.5512   -8.1089    1.9356 H         1 <0>         0.1239
     32 H13        -3.4687   -6.2437    1.3052 H         1 <0>         0.3994
     33 H14        -3.0767   -7.5239    2.3201 H         1 <0>         0.3993
@<TRIPOS>BOND
     1    1    2 1
     2    1   20 1
     3    1   21 1
     4    1   22 1
     5    2    6 1
     6    2    3 1
     7    3    4 2
     8    3   23 1
     9    4    5 1
    10    4    7 1
    11    5    6 2
    12    6   24 1
    13    7    8 2
    14    7    9 2
    15    7   10 1
    16   10   14 1
    17   10   11 1
    18   11   12 1
    19   11   25 1
    20   11   26 1
    21   12   13 1
    22   12   27 1
    23   12   28 1
    24   13   18 ar
    25   13   14 ar
    26   14   15 ar
    27   15   16 ar
    28   15   29 1
    29   16   17 ar
    30   16   19 1
    31   17   18 ar
    32   17   30 1
    33   18   31 1
    34   19   32 1
    35   19   33 1
