@<TRIPOS>MOLECULE
ZINC62767055
   27    28     0     0     0
SMALL
USER_CHARGES

@<TRIPOS>ATOM
      1 C1          0.0629    1.5831   -0.6364 C.3       1 <0>         0.1081
      2 N1          0.0554    0.1214   -0.5388 N.pl3     1 <0>        -0.3815
      3 C2          0.0943   -0.7507   -1.5812 C.2       1 <0>         0.0609
      4 C3          0.0707   -2.0063   -1.0655 C.2       1 <0>        -0.2174
      5 C4          0.0158   -1.8961    0.3317 C.2       1 <0>         0.0539
      6 N2          0.0127   -0.6258    0.6452 N.2       1 <0>        -0.2902
      7 S1          0.1028   -3.5074   -1.9875 S.3       1 <0>        -0.0482
      8 C5          0.0496   -4.8029   -0.7188 C.3       1 <0>        -0.0443
      9 C6          0.0719   -6.1562   -1.3814 C.ar      1 <0>        -0.1065
     10 C7         -1.1110   -6.8302   -1.6438 C.ar      1 <0>        -0.0763
     11 C8         -1.0426   -8.0721   -2.2546 C.ar      1 <0>        -0.1906
     12 C9          0.1967   -8.6010   -2.5832 C.ar      1 <0>         0.0851
     13 N3          1.3030   -7.9410   -2.3228 N.ar      1 <0>        -0.4493
     14 C10         1.2814   -6.7455   -1.7444 C.ar      1 <0>         0.0994
     15 C11         2.5522   -6.0366   -1.4774 C.2       1 <0>         0.5265
     16 O1          3.6034   -6.6595   -1.4396 O.co2     1 <0>        -0.6647
     17 O2          2.5511   -4.8279   -1.2946 O.co2     1 <0>        -0.6521
     18 H1          1.0919    1.9427   -0.6251 H         1 <0>         0.0711
     19 H2         -0.4182    1.8877   -1.5659 H         1 <0>         0.0844
     20 H3         -0.4792    2.0065    0.2091 H         1 <0>         0.0849
     21 H4          0.1364   -0.4917   -2.6289 H         1 <0>         0.1759
     22 H5         -0.0139   -2.7195    1.0299 H         1 <0>         0.1803
     23 H6          0.9148   -4.7051   -0.0631 H         1 <0>         0.1179
     24 H7         -0.8638   -4.7003   -0.1328 H         1 <0>         0.0709
     25 H8         -2.0640   -6.3973   -1.3779 H         1 <0>         0.1281
     26 H9         -1.9456   -8.6231   -2.4723 H         1 <0>         0.1264
     27 H10         0.2535   -9.5687   -3.0593 H         1 <0>         0.1474
@<TRIPOS>BOND
     1    1    2 1
     2    1   18 1
     3    1   19 1
     4    1   20 1
     5    2    6 1
     6    2    3 1
     7    3    4 2
     8    3   21 1
     9    4    5 1
    10    4    7 1
    11    5    6 2
    12    5   22 1
    13    7    8 1
    14    8    9 1
    15    8   23 1
    16    8   24 1
    17    9   14 ar
    18    9   10 ar
    19   10   11 ar
    20   10   25 1
    21   11   12 ar
    22   11   26 1
    23   12   13 ar
    24   12   27 1
    25   13   14 ar
    26   14   15 1
    27   15   16 2
    28   15   17 1
