@<TRIPOS>MOLECULE
ZINC56900950
   32    33     0     0     0
SMALL
USER_CHARGES

@<TRIPOS>ATOM
      1 C1         -0.0173    1.4248    0.0099 C.3       1 <0>         0.0293
      2 O1          0.0021   -0.0041    0.0020 O.3       1 <0>        -0.3487
      3 C2         -1.1915   -0.6328    0.0100 C.2       1 <0>         0.5373
      4 O2         -2.2207    0.0158    0.0233 O.2       1 <0>        -0.4975
      5 C3         -1.2482   -2.0942    0.0027 C.2       1 <0>        -0.2837
      6 C4         -1.2714   -2.8585    1.2406 C.2       1 <0>        -0.0166
      7 C5         -1.3265   -4.1945    1.0603 C.2       1 <0>        -0.2494
      8 S1         -1.3424   -4.4157   -0.6938 S.3       1 <0>         0.2122
      9 C6         -1.2881   -2.8110   -1.1856 C.2       1 <0>         0.1356
     10 N1         -1.2827   -2.3176   -2.4758 N.pl3     1 <0>        -0.8115
     11 C7         -1.3684   -5.2415    2.1324 C.3       1 <0>         0.2087
     12 N2         -1.0970   -4.5610    3.4144 N.am      1 <0>        -0.5929
     13 C8         -1.7475   -3.2627    3.6475 C.3       1 <0>         0.1308
     14 C9         -1.2330   -2.2414    2.6306 C.3       1 <0>        -0.0824
     15 C10        -0.2831   -5.1100    4.3377 C.2       1 <0>         0.6553
     16 O3         -0.0750   -4.5309    5.3854 O.2       1 <0>        -0.5651
     17 O4          0.2995   -6.3002    4.0991 O.3       1 <0>        -0.3641
     18 C11         1.1501   -6.8227    5.1216 C.3       1 <0>         0.0532
     19 H1          1.0053    1.8021    0.0021 H         1 <0>         0.1031
     20 H2         -0.5445    1.7859   -0.8732 H         1 <0>         0.0597
     21 H3         -0.5275    1.7763    0.9067 H         1 <0>         0.0619
     22 H4         -1.2476   -1.3604   -2.6289 H         1 <0>         0.4104
     23 H5         -1.3140   -2.9284   -3.2287 H         1 <0>         0.4154
     24 H6         -2.3541   -5.7060    2.1597 H         1 <0>         0.0916
     25 H7         -0.6056   -5.9969    1.9440 H         1 <0>         0.1068
     26 H8         -2.8264   -3.3724    3.5378 H         1 <0>         0.0847
     27 H9         -1.5186   -2.9179    4.6559 H         1 <0>         0.1063
     28 H10        -0.2081   -1.9651    2.8783 H         1 <0>         0.0890
     29 H11        -1.8660   -1.3543    2.6530 H         1 <0>         0.0921
     30 H12         1.9691   -6.1270    5.3036 H         1 <0>         0.0615
     31 H13         0.5761   -6.9562    6.0386 H         1 <0>         0.0620
     32 H14         1.5537   -7.7836    4.8025 H         1 <0>         0.1051
@<TRIPOS>BOND
     1    1    2 1
     2    1   19 1
     3    1   20 1
     4    1   21 1
     5    2    3 1
     6    3    4 2
     7    3    5 1
     8    5    9 2
     9    5    6 1
    10    6   14 1
    11    6    7 2
    12    7    8 1
    13    7   11 1
    14    8    9 1
    15    9   10 1
    16   10   22 1
    17   10   23 1
    18   11   12 1
    19   11   24 1
    20   11   25 1
    21   12   13 1
    22   12   15 am
    23   13   14 1
    24   13   26 1
    25   13   27 1
    26   14   28 1
    27   14   29 1
    28   15   16 2
    29   15   17 1
    30   17   18 1
    31   18   30 1
    32   18   31 1
    33   18   32 1
