@<TRIPOS>MOLECULE
ZINC44298902
   40    40     0     0     0
SMALL
USER_CHARGES

@<TRIPOS>ATOM
      1 C1         -0.0187    1.5258    0.0104 C.3       1 <0>        -0.1841
      2 C2          0.0021   -0.0041    0.0020 C.3       1 <0>         0.1344
      3 C3          0.7421   -0.5109    1.2415 C.3       1 <0>        -0.1860
      4 C4         -1.4333   -0.5336    0.0129 C.3       1 <0>        -0.1369
      5 O1          0.6709   -0.4649   -1.1737 O.3       1 <0>        -0.3635
      6 C5          1.9522   -0.0848   -1.3367 C.2       1 <0>         0.6497
      7 O2          2.4879    0.6189   -0.5034 O.2       1 <0>        -0.5668
      8 N1          2.6407   -0.4850   -2.4240 N.am      1 <0>        -0.6824
      9 C6          4.0349   -0.0714   -2.6014 C.3       1 <0>         0.0996
     10 H1          4.1672    0.9374   -2.2104 H         1 <0>         0.0906
     11 C7          4.3875   -0.0917   -4.0900 C.3       1 <0>        -0.0837
     12 C8          3.5687    0.9456   -4.8144 C.ar      1 <0>        -0.0800
     13 C9          2.3302    0.6107   -5.3349 C.ar      1 <0>         0.1256
     14 C10         1.5782    1.5632   -6.0007 C.ar      1 <0>        -0.0863
     15 C11         2.0629    2.8496   -6.1466 C.ar      1 <0>        -0.1832
     16 C12         3.3001    3.1865   -5.6269 C.ar      1 <0>         0.1116
     17 C13         4.0519    2.2344   -4.9546 C.ar      1 <0>         0.1046
     18 F1          5.2576    2.5638   -4.4419 F         1 <0>        -0.0997
     19 F2          3.7735    4.4437   -5.7696 F         1 <0>        -0.1085
     20 C14         1.2436    3.8854   -6.8726 C.3       1 <0>         0.5217
     21 F3          0.0423    3.3119   -7.3031 F         1 <0>        -0.1688
     22 F4          0.9684    4.9513   -6.0093 F         1 <0>        -0.1670
     23 F5          1.9594    4.3544   -7.9793 F         1 <0>        -0.1680
     24 F6          1.8556   -0.6463   -5.1932 F         1 <0>        -0.1099
     25 C15         4.9389   -1.0207   -1.8580 C.2       1 <0>         0.4946
     26 O3          4.6108   -2.1857   -1.7110 O.co2     1 <0>        -0.6798
     27 O4          5.9984   -0.6238   -1.4037 O.co2     1 <0>        -0.6827
     28 H2          1.0039    1.9031    0.0027 H         1 <0>         0.0893
     29 H3         -0.5459    1.8868   -0.8726 H         1 <0>         0.0551
     30 H4         -0.5289    1.8773    0.9072 H         1 <0>         0.0648
     31 H5          0.2319   -0.1594    2.1383 H         1 <0>         0.0635
     32 H6          0.7568   -1.6008    1.2356 H         1 <0>         0.0591
     33 H7          1.7647   -0.1336    1.2338 H         1 <0>         0.0911
     34 H8         -1.9605   -0.1726   -0.8702 H         1 <0>         0.0630
     35 H9         -1.4185   -1.6235    0.0069 H         1 <0>         0.0653
     36 H10        -1.9435   -0.1821    0.9097 H         1 <0>         0.0755
     37 H11         2.2131   -1.0467   -3.0892 H         1 <0>         0.3990
     38 H12         5.4474    0.1295   -4.2154 H         1 <0>         0.1111
     39 H13         4.1709   -1.0777   -4.5013 H         1 <0>         0.0999
     40 H14         0.6124    1.3011   -6.4067 H         1 <0>         0.1685
@<TRIPOS>BOND
     1    1    2 1
     2    1   28 1
     3    1   29 1
     4    1   30 1
     5    2    3 1
     6    2    4 1
     7    2    5 1
     8    3   31 1
     9    3   32 1
    10    3   33 1
    11    4   34 1
    12    4   35 1
    13    4   36 1
    14    5    6 1
    15    6    7 2
    16    6    8 am
    17    8    9 1
    18    8   37 1
    19    9   10 1
    20    9   11 1
    21    9   25 1
    22   11   12 1
    23   11   38 1
    24   11   39 1
    25   12   17 ar
    26   12   13 ar
    27   13   14 ar
    28   13   24 1
    29   14   15 ar
    30   14   40 1
    31   15   16 ar
    32   15   20 1
    33   16   17 ar
    34   16   19 1
    35   17   18 1
    36   20   21 1
    37   20   22 1
    38   20   23 1
    39   25   26 2
    40   25   27 1
