@<TRIPOS>MOLECULE
ZINC00524822
   37    38     0     0     0
SMALL
USER_CHARGES

@<TRIPOS>ATOM
      1 C1         -0.0184    1.5028    0.0103 C.3       1 <0>        -0.1181
      2 C2          0.0021   -0.0041    0.0020 C.ar      1 <0>        -0.0692
      3 C3          0.0057   -0.6859   -1.2023 C.ar      1 <0>        -0.1299
      4 C4          0.0248   -2.0647   -1.2180 C.ar      1 <0>        -0.0814
      5 C5          0.0406   -2.7737   -0.0132 C.ar      1 <0>        -0.0826
      6 C6          0.0368   -2.0778    1.1992 C.ar      1 <0>        -0.0651
      7 C7          0.0229   -0.6989    1.1987 C.ar      1 <0>        -0.1315
      8 C8          0.0605   -4.2462   -0.0213 C.2       1 <0>         0.1999
      9 N1          0.0751   -4.9036    1.1032 N.2       1 <0>        -0.4770
     10 C9          0.0937   -6.2720    1.0956 C.ar      1 <0>         0.1130
     11 C10        -0.7510   -6.9804    0.2380 C.ar      1 <0>        -0.1732
     12 C11        -0.7270   -8.3595    0.2358 C.ar      1 <0>        -0.0079
     13 C12         0.1312   -9.0412    1.0805 C.ar      1 <0>        -0.6318
     14 C13         0.9704   -8.3458    1.9330 C.ar      1 <0>        -0.0108
     15 C14         0.9615   -6.9665    1.9414 C.ar      1 <0>        -0.1263
     16 S1          0.1550  -10.8030    1.0708 S.o2      1 <0>         2.6441
     17 O1          0.6520  -11.2094    2.3385 O.2       1 <0>        -1.0063
     18 O2         -1.1096  -11.2236    0.5778 O.2       1 <0>        -1.0066
     19 N2          1.2798  -11.2713   -0.0508 N.2       1 <0>        -1.0612
     20 C15         1.4990  -12.5256   -0.2599 C.2       1 <0>         0.4785
     21 O3          0.8117  -13.4556    0.4352 O.3       1 <0>        -0.7315
     22 C16         2.5225  -12.9518   -1.2806 C.3       1 <0>        -0.1130
     23 H1          1.0042    1.8801    0.0026 H         1 <0>         0.0725
     24 H2         -0.5455    1.8639   -0.8728 H         1 <0>         0.0674
     25 H3         -0.5286    1.8543    0.9071 H         1 <0>         0.0673
     26 H4         -0.0068   -0.1368   -2.1322 H         1 <0>         0.1260
     27 H5          0.0273   -2.5954   -2.1586 H         1 <0>         0.1298
     28 H6          0.0488   -2.6188    2.1339 H         1 <0>         0.1359
     29 H7          0.0240   -0.1598    2.1346 H         1 <0>         0.1249
     30 H8          0.0631   -4.7810   -0.9596 H         1 <0>         0.1122
     31 H9         -1.4215   -6.4496   -0.4215 H         1 <0>         0.1269
     32 H10        -1.3798   -8.9086   -0.4266 H         1 <0>         0.1408
     33 H11         1.6375   -8.8843    2.5899 H         1 <0>         0.1435
     34 H12         1.6205   -6.4250    2.6039 H         1 <0>         0.1331
     35 H13         3.4962  -13.0487   -0.8002 H         1 <0>         0.0722
     36 H14         2.2314  -13.9111   -1.7084 H         1 <0>         0.0661
     37 H15         2.5804  -12.2038   -2.0713 H         1 <0>         0.0697
@<TRIPOS>BOND
     1    1    2 1
     2    1   23 1
     3    1   24 1
     4    1   25 1
     5    2    7 ar
     6    2    3 ar
     7    3    4 ar
     8    3   26 1
     9    4    5 ar
    10    4   27 1
    11    5    6 ar
    12    5    8 1
    13    6    7 ar
    14    6   28 1
    15    7   29 1
    16    8    9 2
    17    8   30 1
    18    9   10 1
    19   10   15 ar
    20   10   11 ar
    21   11   12 ar
    22   11   31 1
    23   12   13 ar
    24   12   32 1
    25   13   14 ar
    26   13   16 1
    27   14   15 ar
    28   14   33 1
    29   15   34 1
    30   16   17 2
    31   16   18 2
    32   16   19 1
    33   19   20 2
    34   20   21 1
    35   20   22 1
    36   22   35 1
    37   22   36 1
    38   22   37 1
