@<TRIPOS>MOLECULE
ZINC67599758
   44    45     0     0     0
SMALL
USER_CHARGES

@<TRIPOS>ATOM
      1 C1         -0.0187    1.5258    0.0104 C.3       1 <0>        -0.1503
      2 C2          0.0021   -0.0041    0.0020 C.3       1 <0>        -0.0756
      3 C3          0.7421   -0.5109    1.2415 C.3       1 <0>        -0.1434
      4 C4         -1.4333   -0.5336    0.0129 C.3       1 <0>        -0.0257
      5 H1         -1.4190   -1.6203    0.0965 H         1 <0>         0.0971
      6 C5         -2.1755    0.0508    1.1870 C.2       1 <0>         0.5138
      7 O1         -2.9277    1.1592    1.0257 O.3       1 <0>        -0.6971
      8 N1         -2.0916   -0.5089    2.3467 N.2       1 <0>        -1.0569
      9 S1         -2.9072    0.1334    3.6370 S.o2      1 <0>         2.6488
     10 O2         -2.3181    1.3994    3.9005 O.2       1 <0>        -1.0042
     11 O3         -4.2923   -0.0193    3.3587 O.2       1 <0>        -1.0040
     12 C6         -2.5588   -0.8844    5.0324 C.ar      1 <0>        -0.6296
     13 C7         -3.3677   -1.9689    5.3162 C.ar      1 <0>        -0.0238
     14 C8         -3.0944   -2.7674    6.4110 C.ar      1 <0>        -0.1469
     15 C9         -2.0119   -2.4817    7.2218 C.ar      1 <0>        -0.0828
     16 C10        -1.2024   -1.3978    6.9375 C.ar      1 <0>        -0.1471
     17 C11        -1.4732   -0.6018    5.8403 C.ar      1 <0>        -0.0238
     18 S2         -2.2655   -0.0565   -1.5267 S.3       1 <0>        -0.1811
     19 C12        -1.3534   -0.9516   -2.8142 C.3       1 <0>        -0.0780
     20 C13        -1.9507   -0.6395   -4.1621 C.ar      1 <0>        -0.0578
     21 C14        -2.9755   -1.4212   -4.6617 C.ar      1 <0>        -0.1040
     22 C15        -3.5235   -1.1349   -5.8981 C.ar      1 <0>        -0.1215
     23 C16        -3.0469   -0.0667   -6.6347 C.ar      1 <0>        -0.1237
     24 C17        -2.0227    0.7156   -6.1347 C.ar      1 <0>        -0.1216
     25 C18        -1.4777    0.4319   -4.8964 C.ar      1 <0>        -0.1029
     26 H2          1.0039    1.9031    0.0027 H         1 <0>         0.0437
     27 H3         -0.5459    1.8868   -0.8726 H         1 <0>         0.0677
     28 H4         -0.5289    1.8773    0.9072 H         1 <0>         0.0685
     29 H5          0.5123   -0.3556   -0.8948 H         1 <0>         0.0635
     30 H6          0.7568   -1.6008    1.2356 H         1 <0>         0.0512
     31 H7          1.7647   -0.1336    1.2338 H         1 <0>         0.0449
     32 H8          0.2319   -0.1594    2.1383 H         1 <0>         0.0779
     33 H9         -4.2135   -2.1921    4.6827 H         1 <0>         0.1363
     34 H10        -3.7268   -3.6142    6.6330 H         1 <0>         0.1260
     35 H11        -1.7987   -3.1051    8.0775 H         1 <0>         0.1231
     36 H12        -0.3568   -1.1744    7.5712 H         1 <0>         0.1260
     37 H13        -0.8386    0.2428    5.6160 H         1 <0>         0.1363
     38 H14        -0.3080   -0.6433   -2.7998 H         1 <0>         0.0858
     39 H15        -1.4187   -2.0234   -2.6272 H         1 <0>         0.0835
     40 H16        -3.3479   -2.2558   -4.0862 H         1 <0>         0.1236
     41 H17        -4.3236   -1.7461   -6.2887 H         1 <0>         0.1206
     42 H18        -3.4745    0.1565   -7.6010 H         1 <0>         0.1186
     43 H19        -1.6501    1.5500   -6.7104 H         1 <0>         0.1207
     44 H20        -0.6800    1.0453   -4.5041 H         1 <0>         0.1239
@<TRIPOS>BOND
     1    1    2 1
     2    1   26 1
     3    1   27 1
     4    1   28 1
     5    2    3 1
     6    2    4 1
     7    2   29 1
     8    3   30 1
     9    3   31 1
    10    3   32 1
    11    4    5 1
    12    4    6 1
    13    4   18 1
    14    6    7 1
    15    6    8 2
    16    8    9 1
    17    9   10 2
    18    9   11 2
    19    9   12 1
    20   12   17 ar
    21   12   13 ar
    22   13   14 ar
    23   13   33 1
    24   14   15 ar
    25   14   34 1
    26   15   16 ar
    27   15   35 1
    28   16   17 ar
    29   16   36 1
    30   17   37 1
    31   18   19 1
    32   19   20 1
    33   19   38 1
    34   19   39 1
    35   20   25 ar
    36   20   21 ar
    37   21   22 ar
    38   21   40 1
    39   22   23 ar
    40   22   41 1
    41   23   24 ar
    42   23   42 1
    43   24   25 ar
    44   24   43 1
    45   25   44 1
