@<TRIPOS>MOLECULE
ZINC50927446
   41    41     0     0     0
SMALL
USER_CHARGES

@<TRIPOS>ATOM
      1 C1         -4.5893   -1.4303   -0.7138 C.3       1 <0>        -0.1677
      2 C2         -3.7483   -1.9796    0.4403 C.3       1 <0>         0.1338
      3 N1         -3.2110   -0.8661    1.2262 N.am      1 <0>        -0.6334
      4 C3         -3.9094   -0.4172    2.4332 C.3       1 <0>         0.0666
      5 C4         -3.8885   -1.5334    3.4794 C.3       1 <0>        -0.1822
      6 C5         -2.0741   -0.2547    0.8387 C.2       1 <0>         0.7107
      7 O1         -1.6722   -0.3844   -0.3015 O.2       1 <0>        -0.5887
      8 N2         -1.3826    0.5004    1.7151 N.am      1 <0>        -0.6225
      9 C6         -0.2786    1.3555    1.2585 C.3       1 <0>         0.1292
     10 C7          0.9718    1.0273    2.0805 C.3       1 <0>        -0.1279
     11 C8          0.6477    1.1613    3.5702 C.3       1 <0>        -0.0893
     12 C9         -0.4525    0.1661    3.9461 C.3       1 <0>        -0.1300
     13 C10        -1.7226    0.4889    3.1445 C.3       1 <0>         0.0543
     14 C11         1.9036    0.8678    4.3934 C.3       1 <0>        -0.0868
     15 C12         1.6139    1.1225    5.8739 C.3       1 <0>        -0.1822
     16 C13         2.8508    0.8334    6.6848 C.2       1 <0>         0.4868
     17 O2          3.8696    0.4584    6.1299 O.co2     1 <0>        -0.6997
     18 O3          2.8328    0.9745    7.8957 O.co2     1 <0>        -0.7101
     19 H1         -4.9891   -2.2587   -1.2985 H         1 <0>         0.0606
     20 H2         -5.4119   -0.8375   -0.3139 H         1 <0>         0.0510
     21 H3         -3.9659   -0.8032   -1.3512 H         1 <0>         0.0655
     22 H4         -4.3717   -2.6067    1.0777 H         1 <0>         0.0751
     23 H5         -2.9257   -2.5724    0.0404 H         1 <0>         0.0737
     24 H6         -3.4115    0.4657    2.8339 H         1 <0>         0.1188
     25 H7         -4.9419   -0.1709    2.1852 H         1 <0>         0.0659
     26 H8         -4.3865   -2.4163    3.0787 H         1 <0>         0.0637
     27 H9         -2.8561   -1.7797    3.7274 H         1 <0>         0.0695
     28 H10        -4.4082   -1.1994    4.3775 H         1 <0>         0.0728
     29 H11        -0.0822    1.1662    0.2032 H         1 <0>         0.0892
     30 H12        -0.5447    2.4029    1.4006 H         1 <0>         0.0611
     31 H13         1.2895    0.0066    1.8676 H         1 <0>         0.0658
     32 H14         1.7716    1.7199    1.8184 H         1 <0>         0.0744
     33 H15         0.3065    2.1755    3.7778 H         1 <0>         0.0650
     34 H16        -0.1214   -0.8465    3.7157 H         1 <0>         0.0645
     35 H17        -0.6663    0.2458    5.0120 H         1 <0>         0.0787
     36 H18        -2.1041    1.4671    3.4373 H         1 <0>         0.0668
     37 H19        -2.4793   -0.2724    3.3340 H         1 <0>         0.1303
     38 H20         2.1943   -0.1734    4.2539 H         1 <0>         0.0578
     39 H21         2.7139    1.5184    4.0645 H         1 <0>         0.0592
     40 H22         1.3232    2.1637    6.0134 H         1 <0>         0.0535
     41 H23         0.8036    0.4718    6.2028 H         1 <0>         0.0562
@<TRIPOS>BOND
     1    1    2 1
     2    1   19 1
     3    1   20 1
     4    1   21 1
     5    2    3 1
     6    2   22 1
     7    2   23 1
     8    3    4 1
     9    3    6 am
    10    4    5 1
    11    4   24 1
    12    4   25 1
    13    5   26 1
    14    5   27 1
    15    5   28 1
    16    6    7 2
    17    6    8 am
    18    8   13 1
    19    8    9 1
    20    9   10 1
    21    9   29 1
    22    9   30 1
    23   10   11 1
    24   10   31 1
    25   10   32 1
    26   11   12 1
    27   11   14 1
    28   11   33 1
    29   12   13 1
    30   12   34 1
    31   12   35 1
    32   13   36 1
    33   13   37 1
    34   14   15 1
    35   14   38 1
    36   14   39 1
    37   15   16 1
    38   15   40 1
    39   15   41 1
    40   16   17 2
    41   16   18 1
