@<TRIPOS>MOLECULE
ZINC42665483
   38    39     0     0     0
SMALL
USER_CHARGES

@<TRIPOS>ATOM
      1 C1          0.5436    1.7242    0.3260 C.3       1 <0>        -0.1043
      2 C2          0.3724    0.2288    0.2526 C.ar      1 <0>        -0.0559
      3 C3          0.2188   -0.3895   -0.9750 C.ar      1 <0>        -0.2311
      4 C4          0.0609   -1.7612   -1.0468 C.ar      1 <0>        -0.0705
      5 C5          0.0566   -2.5189    0.1081 C.ar      1 <0>        -0.2686
      6 C6          0.2110   -1.9013    1.3425 C.ar      1 <0>         0.2987
      7 C7          0.3746   -0.5233    1.4107 C.ar      1 <0>        -0.1536
      8 C8          0.5482    0.1506    2.7474 C.3       1 <0>        -0.0797
      9 N1          0.2071   -2.6644    2.5123 N.2       1 <0>        -1.0252
     10 S1          0.0182   -4.3074    2.4285 S.o2      1 <0>         2.5991
     11 O1         -1.2974   -4.5408    1.9447 O.2       1 <0>        -1.0384
     12 O2          1.1721   -4.8160    1.7735 O.2       1 <0>        -1.0080
     13 C9          0.0642   -4.9220    4.0792 C.ar      1 <0>        -0.5298
     14 C10        -1.0484   -5.5415    4.6174 C.ar      1 <0>        -0.0542
     15 C11        -1.0124   -6.0236    5.9123 C.ar      1 <0>        -0.0944
     16 C12         0.1365   -5.8867    6.6691 C.ar      1 <0>        -0.1075
     17 C13         1.2492   -5.2683    6.1307 C.ar      1 <0>        -0.0542
     18 C14         1.2145   -4.7899    4.8340 C.ar      1 <0>        -0.5615
     19 S2          2.6349   -4.0069    4.1455 S.o2      1 <0>         2.4453
     20 O3          2.1669   -3.3890    2.9546 O.2       1 <0>        -0.8407
     21 O4          3.1678   -3.2253    5.2059 O.2       1 <0>        -0.9446
     22 C15         3.7664   -5.3659    3.7413 C.3       1 <0>        -0.6547
     23 H1          1.6035    1.9718    0.2683 H         1 <0>         0.0574
     24 H2          0.0156    2.1916   -0.5052 H         1 <0>         0.0520
     25 H3          0.1355    2.0909    1.2679 H         1 <0>         0.0598
     26 H4          0.2218    0.2006   -1.8796 H         1 <0>         0.0953
     27 H5         -0.0595   -2.2408   -2.0070 H         1 <0>         0.0955
     28 H6         -0.0671   -3.5903    0.0513 H         1 <0>         0.0924
     29 H7         -0.4286    0.4260    3.1450 H         1 <0>         0.0422
     30 H8          1.0418   -0.5334    3.4377 H         1 <0>         0.0722
     31 H9          1.1569    1.0466    2.6263 H         1 <0>         0.0371
     32 H10        -1.9459   -5.6484    4.0262 H         1 <0>         0.1463
     33 H11        -1.8818   -6.5069    6.3330 H         1 <0>         0.1332
     34 H12         0.1645   -6.2628    7.6811 H         1 <0>         0.1326
     35 H13         2.1465   -5.1611    6.7220 H         1 <0>         0.1381
     36 H14         3.3251   -5.9862    2.9611 H         1 <0>         0.1393
     37 H15         4.7134   -4.9575    3.3886 H         1 <0>         0.1271
     38 H16         3.9404   -5.9707    4.6313 H         1 <0>         0.1132
@<TRIPOS>BOND
     1    1    2 1
     2    1   23 1
     3    1   24 1
     4    1   25 1
     5    2    7 ar
     6    2    3 ar
     7    3    4 ar
     8    3   26 1
     9    4    5 ar
    10    4   27 1
    11    5    6 ar
    12    5   28 1
    13    6    7 ar
    14    6    9 1
    15    7    8 1
    16    8   29 1
    17    8   30 1
    18    8   31 1
    19    9   10 1
    20   10   11 2
    21   10   12 2
    22   10   13 1
    23   13   18 ar
    24   13   14 ar
    25   14   15 ar
    26   14   32 1
    27   15   16 ar
    28   15   33 1
    29   16   17 ar
    30   16   34 1
    31   17   18 ar
    32   17   35 1
    33   18   19 1
    34   19   20 2
    35   19   21 2
    36   19   22 1
    37   22   36 1
    38   22   37 1
    39   22   38 1
