@<TRIPOS>MOLECULE
ZINC31817348
   53    56     0     0     0
SMALL
USER_CHARGES
3-[(2R)-2-(4-dimethylaminophenyl)-7-(trifluoromethyl)-2,3-dihydro-1,5-benzothiazepin-4-yl]-4-hydroxy-6-methyl-pyran-2-one
@<TRIPOS>ATOM
      1 C1          3.8006    2.6979    2.4784 C.3       1 <0>        -0.1040
      2 C2          3.1054    2.3898    1.1773 C.2       1 <0>         0.1146
      3 C3          1.8788    1.8299    1.2037 C.2       1 <0>        -0.2671
      4 C4          1.2164    1.5294   -0.0013 C.2       1 <0>         0.3551
      5 C5          1.8564    1.8367   -1.2121 C.2       1 <0>        -0.4725
      6 C6          3.1432    2.4301   -1.1644 C.2       1 <0>         0.5173
      7 O1          3.7254    2.7094   -2.1974 O.2       1 <0>        -0.5426
      8 O2          3.7189    2.6842    0.0232 O.3       1 <0>        -0.2915
      9 C7          1.2105    1.5506   -2.4946 C.2       1 <0>         0.4592
     10 N1          0.4981    2.4637   -2.9535 N.2       1 <0>        -0.6189
     11 C8         -0.3804    2.7685   -3.9083 C.ar      1 <0>         0.2145
     12 C9         -0.9879    4.0379   -3.7711 C.ar      1 <0>        -0.0459
     13 C10        -1.9429    4.4769   -4.6520 C.ar      1 <0>        -0.1790
     14 C11        -2.3306    3.6684   -5.7073 C.ar      1 <0>        -0.0880
     15 C12        -1.7473    2.4332   -5.8656 C.ar      1 <0>        -0.0843
     16 C13        -0.7677    1.9653   -4.9820 C.ar      1 <0>        -0.1323
     17 S1         -0.1015    0.3821   -5.3124 S.3       1 <0>        -0.0723
     18 C14         0.2916   -0.3910   -3.7491 C.3       1 <0>        -0.0442
     19 H1         -0.4646   -0.3251   -2.9529 H         1 <0>         0.1050
     20 C15         1.4898    0.2069   -3.0689 C.3       1 <0>        -0.1359
     21 C16         0.5545   -1.8551   -3.9905 C.ar      1 <0>        -0.1105
     22 C17         1.6236   -2.2435   -4.7769 C.ar      1 <0>        -0.0534
     23 C18         1.8708   -3.5846   -4.9955 C.ar      1 <0>        -0.1912
     24 C19         1.0372   -4.5434   -4.4338 C.ar      1 <0>         0.2123
     25 C20        -0.0392   -4.1496   -3.6490 C.ar      1 <0>        -0.1913
     26 C21        -0.2772   -2.8070   -3.4298 C.ar      1 <0>        -0.0500
     27 N2          1.2812   -5.9004   -4.6571 N.pl3     1 <0>        -0.6400
     28 C22         0.4014   -6.9103   -4.0635 C.3       1 <0>         0.0945
     29 C23         2.4169   -6.3139   -5.4851 C.3       1 <0>         0.0946
     30 C24        -2.5692    5.8357   -4.4717 C.3       1 <0>         0.5123
     31 F1         -1.8218    6.7900   -5.1702 F         1 <0>        -0.1783
     32 F2         -3.8778    5.8152   -4.9659 F         1 <0>        -0.1797
     33 F3         -2.5893    6.1632   -3.1117 F         1 <0>        -0.1757
     34 O3         -0.0110    0.9628    0.0073 O.3       1 <0>        -0.6616
     35 H2          3.1587    2.3934    3.3182 H         1 <0>         0.0879
     36 H3          3.9990    3.7780    2.5413 H         1 <0>         0.0800
     37 H4          4.7516    2.1471    2.5254 H         1 <0>         0.0799
     38 H5          1.4066    1.6082    2.1494 H         1 <0>         0.1335
     39 H6         -0.6929    4.6774   -2.9522 H         1 <0>         0.1396
     40 H7         -3.0860    4.0058   -6.4016 H         1 <0>         0.1363
     41 H8         -2.0521    1.8089   -6.6925 H         1 <0>         0.1333
     42 H9          2.2958    0.2866   -3.8132 H         1 <0>         0.0923
     43 H10         1.7989   -0.4781   -2.2657 H         1 <0>         0.1012
     44 H11         2.2685   -1.4974   -5.2172 H         1 <0>         0.1249
     45 H12         2.7085   -3.8874   -5.6062 H         1 <0>         0.1210
     46 H13        -0.6889   -4.8925   -3.2105 H         1 <0>         0.1212
     47 H14        -1.1137   -2.5002   -2.8194 H         1 <0>         0.1236
     48 H15         0.7500   -7.9137   -4.3490 H         1 <0>         0.0709
     49 H16        -0.6258   -6.7615   -4.4279 H         1 <0>         0.0532
     50 H17         0.4194   -6.8139   -2.9679 H         1 <0>         0.0539
     51 H18         2.4462   -7.4119   -5.5454 H         1 <0>         0.0708
     52 H19         3.3513   -5.9463   -5.0358 H         1 <0>         0.0539
     53 H20         2.3059   -5.8940   -6.4957 H         1 <0>         0.0533
@<TRIPOS>BOND
     1    1    2 1
     2    1   35 1
     3    1   36 1
     4    1   37 1
     5    2    8 1
     6    2    3 2
     7    3    4 1
     8    3   38 1
     9    4    5 2
    10    4   34 1
    11    5    6 1
    12    5    9 1
    13    6    7 2
    14    6    8 1
    15    9   20 1
    16    9   10 2
    17   10   11 1
    18   11   16 ar
    19   11   12 ar
    20   12   13 ar
    21   12   39 1
    22   13   14 ar
    23   13   30 1
    24   14   15 ar
    25   14   40 1
    26   15   16 ar
    27   15   41 1
    28   16   17 1
    29   17   18 1
    30   18   19 1
    31   18   20 1
    32   18   21 1
    33   20   42 1
    34   20   43 1
    35   21   26 ar
    36   21   22 ar
    37   22   23 ar
    38   22   44 1
    39   23   24 ar
    40   23   45 1
    41   24   25 ar
    42   24   27 1
    43   25   26 ar
    44   25   46 1
    45   26   47 1
    46   27   28 1
    47   27   29 1
    48   28   48 1
    49   28   49 1
    50   28   50 1
    51   29   51 1
    52   29   52 1
    53   29   53 1
    54   30   31 1
    55   30   32 1
    56   30   33 1
