@<TRIPOS>MOLECULE
ZINC12589012
   50    53     0     0     0
SMALL
USER_CHARGES

@<TRIPOS>ATOM
      1 C1         -0.3373    1.4894    0.1307 C.3       1 <0>        -0.1100
      2 C2         -0.2472   -0.0146    0.0961 C.ar      1 <0>        -0.0966
      3 C3         -0.2278   -0.6756   -1.1192 C.ar      1 <0>        -0.1150
      4 C4         -0.1454   -2.0522   -1.1579 C.ar      1 <0>        -0.0856
      5 C5         -0.0816   -2.7781    0.0325 C.ar      1 <0>         0.0206
      6 C6         -0.1016   -2.1050    1.2551 C.ar      1 <0>        -0.1209
      7 C7         -0.1785   -0.7278    1.2797 C.ar      1 <0>        -0.1132
      8 C8          0.0063   -4.2535   -0.0014 C.2       1 <0>         0.1514
      9 N1         -0.3222   -5.0317   -1.0062 N.2       1 <0>        -0.2710
     10 N2         -0.1185   -6.2614   -0.6934 N.2       1 <0>        -0.3398
     11 C9          0.3528   -6.3436    0.5309 C.2       1 <0>         0.3901
     12 S1          0.7818   -7.8217    1.3886 S.3       1 <0>        -0.7992
     13 N3          0.4536   -5.0695    1.0120 N.pl3     1 <0>        -0.4744
     14 C10         0.9347   -4.6576    2.3331 C.3       1 <0>         0.1014
     15 C11        -0.2143   -4.6563    3.3082 C.2       1 <0>         0.5086
     16 O1         -1.3256   -4.9686    2.9363 O.2       1 <0>        -0.5072
     17 N4         -0.0069   -4.3080    4.5935 N.am      1 <0>        -0.6103
     18 C12         1.3332   -3.9214    5.0568 C.3       1 <0>         0.0886
     19 C13         1.2465   -2.5336    5.7040 C.3       1 <0>         0.1323
     20 N5          0.1366   -2.5332    6.6673 N.pl3     1 <0>        -0.6737
     21 C14        -1.2035   -2.9198    6.2040 C.3       1 <0>         0.1344
     22 C15        -1.1179   -4.3021    5.5555 C.3       1 <0>         0.0981
     23 C16         0.3518   -2.1718    8.0010 C.ar      1 <0>         0.1396
     24 C17         0.2173   -0.8469    8.3933 C.ar      1 <0>        -0.0965
     25 C18         0.4301   -0.4929    9.7116 C.ar      1 <0>        -0.1267
     26 C19         0.7772   -1.4560   10.6411 C.ar      1 <0>        -0.0960
     27 C20         0.9129   -2.7770   10.2553 C.ar      1 <0>        -0.1527
     28 C21         0.6954   -3.1397    8.9387 C.ar      1 <0>         0.0915
     29 F1          0.8221   -4.4311    8.5628 F         1 <0>        -0.1315
     30 H1          0.6665    1.9139    0.1168 H         1 <0>         0.0672
     31 H2         -0.8922    1.8402   -0.7395 H         1 <0>         0.0644
     32 H3         -0.8515    1.8017    1.0396 H         1 <0>         0.0627
     33 H4         -0.2776   -0.1127   -2.0396 H         1 <0>         0.1241
     34 H5         -0.1307   -2.5670   -2.1072 H         1 <0>         0.1341
     35 H6         -0.0525   -2.6609    2.1798 H         1 <0>         0.1160
     36 H7         -0.1897   -0.2055    2.2249 H         1 <0>         0.1197
     37 H8          1.7002   -5.3545    2.6745 H         1 <0>         0.1256
     38 H9          1.3583   -3.6553    2.2692 H         1 <0>         0.1103
     39 H10         1.6898   -4.6452    5.7897 H         1 <0>         0.0771
     40 H11         2.0177   -3.8877    4.2092 H         1 <0>         0.0891
     41 H12         2.1800   -2.3124    6.2214 H         1 <0>         0.0816
     42 H13         1.0643   -1.7824    4.9356 H         1 <0>         0.0610
     43 H14        -1.8880   -2.9535    7.0516 H         1 <0>         0.0794
     44 H15        -1.5601   -2.1960    5.4711 H         1 <0>         0.0596
     45 H16        -2.0518   -4.5198    5.0372 H         1 <0>         0.0980
     46 H17        -0.9398   -5.0536    6.3247 H         1 <0>         0.0694
     47 H18        -0.0531   -0.0934    7.6683 H         1 <0>         0.1315
     48 H19         0.3254    0.5378   10.0167 H         1 <0>         0.1285
     49 H20         0.9432   -1.1758   11.6708 H         1 <0>         0.1307
     50 H21         1.1845   -3.5267   10.9837 H         1 <0>         0.1339
@<TRIPOS>BOND
     1    1    2 1
     2    1   30 1
     3    1   31 1
     4    1   32 1
     5    2    7 ar
     6    2    3 ar
     7    3    4 ar
     8    3   33 1
     9    4    5 ar
    10    4   34 1
    11    5    6 ar
    12    5    8 1
    13    6    7 ar
    14    6   35 1
    15    7   36 1
    16    8   13 1
    17    8    9 2
    18    9   10 1
    19   10   11 2
    20   11   12 1
    21   11   13 1
    22   13   14 1
    23   14   15 1
    24   14   37 1
    25   14   38 1
    26   15   16 2
    27   15   17 am
    28   17   22 1
    29   17   18 1
    30   18   19 1
    31   18   39 1
    32   18   40 1
    33   19   20 1
    34   19   41 1
    35   19   42 1
    36   20   21 1
    37   20   23 1
    38   21   22 1
    39   21   43 1
    40   21   44 1
    41   22   45 1
    42   22   46 1
    43   23   28 ar
    44   23   24 ar
    45   24   25 ar
    46   24   47 1
    47   25   26 ar
    48   25   48 1
    49   26   27 ar
    50   26   49 1
    51   27   28 ar
    52   27   50 1
    53   28   29 1
