@<TRIPOS>MOLECULE
ZINC38032779
   44    46     0     0     0
SMALL
USER_CHARGES

@<TRIPOS>ATOM
      1 C1         -0.0187    1.5258    0.0104 C.3       1 <0>        -0.1474
      2 C2          0.0021   -0.0041    0.0020 C.3       1 <0>        -0.1050
      3 H1         -1.0203   -0.3818    0.0098 H         1 <0>         0.0758
      4 C3          0.7197   -0.4983   -1.2561 C.3       1 <0>        -0.1128
      5 C4          0.7122   -2.0284   -1.2819 C.3       1 <0>        -0.1329
      6 C5          1.4632   -2.5595   -0.0568 C.3       1 <0>         0.1192
      7 N1          0.8694   -1.9734    1.1526 N.pl3     1 <0>        -1.0040
      8 C6          0.7443   -0.5122    1.2421 C.3       1 <0>         0.1240
      9 S1          0.3501   -2.9415    2.3917 S.o2      1 <0>         2.7842
     10 O1         -0.6301   -2.1990    3.1038 O.2       1 <0>        -0.9706
     11 O2          0.0773   -4.2157    1.8248 O.2       1 <0>        -0.9711
     12 N2          1.6299   -3.1463    3.4224 N.pl3     1 <0>        -1.0062
     13 C7          2.5824   -4.2556    3.2496 C.3       1 <0>         0.1224
     14 C8          3.9504   -3.6546    2.9303 C.3       1 <0>        -0.0896
     15 C9          4.2804   -2.5363    3.8833 C.ar      1 <0>        -0.1436
     16 C10         3.3236   -1.8704    4.6141 C.ar      1 <0>        -0.0471
     17 C11         3.6964   -0.8370    5.4633 C.ar      1 <0>        -0.1744
     18 C12         5.0222   -0.4742    5.5912 C.ar      1 <0>        -0.0681
     19 C13         5.9897   -1.1438    4.8684 C.ar      1 <0>        -0.1997
     20 C14         5.6218   -2.1728    4.0153 C.ar      1 <0>         0.2180
     21 N3          6.5995   -2.8499    3.2828 N.pl3     1 <0>        -0.8781
     22 C15         1.8637   -2.2262    4.5406 C.3       1 <0>         0.1654
     23 H2          1.0039    1.9031    0.0027 H         1 <0>         0.0570
     24 H3         -0.5459    1.8868   -0.8726 H         1 <0>         0.0598
     25 H4         -0.5289    1.8773    0.9072 H         1 <0>         0.0589
     26 H5          0.2072   -0.1177   -2.1396 H         1 <0>         0.0665
     27 H6          1.7492   -0.1402   -1.2513 H         1 <0>         0.0644
     28 H7         -0.3167   -2.3876   -1.2618 H         1 <0>         0.0684
     29 H8          1.2029   -2.3794   -2.1897 H         1 <0>         0.0763
     30 H9          1.3762   -3.6453   -0.0173 H         1 <0>         0.0903
     31 H10         2.5140   -2.2771   -0.1216 H         1 <0>         0.0677
     32 H11         1.7365   -0.0628    1.2837 H         1 <0>         0.0694
     33 H12         0.1830   -0.2472    2.1380 H         1 <0>         0.0903
     34 H13         2.6410   -4.8380    4.1690 H         1 <0>         0.0813
     35 H14         2.2594   -4.8944    2.4276 H         1 <0>         0.0963
     36 H15         4.7109   -4.4312    3.0118 H         1 <0>         0.0786
     37 H16         3.9427   -3.2670    1.9116 H         1 <0>         0.0739
     38 H17         2.9414   -0.3115    6.0292 H         1 <0>         0.1212
     39 H18         5.3019    0.3307    6.2547 H         1 <0>         0.1229
     40 H19         7.0288   -0.8668    4.9671 H         1 <0>         0.1195
     41 H20         6.3456   -3.5701    2.6847 H         1 <0>         0.3972
     42 H21         7.5325   -2.5999    3.3722 H         1 <0>         0.3986
     43 H22         1.2770   -1.3195    4.3930 H         1 <0>         0.0963
     44 H23         1.5628   -2.7044    5.4728 H         1 <0>         0.0869
@<TRIPOS>BOND
     1    1    2 1
     2    1   23 1
     3    1   24 1
     4    1   25 1
     5    2    3 1
     6    2    8 1
     7    2    4 1
     8    4    5 1
     9    4   26 1
    10    4   27 1
    11    5    6 1
    12    5   28 1
    13    5   29 1
    14    6    7 1
    15    6   30 1
    16    6   31 1
    17    7    8 1
    18    7    9 1
    19    8   32 1
    20    8   33 1
    21    9   10 2
    22    9   11 2
    23    9   12 1
    24   12   22 1
    25   12   13 1
    26   13   14 1
    27   13   34 1
    28   13   35 1
    29   14   15 1
    30   14   36 1
    31   14   37 1
    32   15   20 ar
    33   15   16 ar
    34   16   17 ar
    35   16   22 1
    36   17   18 ar
    37   17   38 1
    38   18   19 ar
    39   18   39 1
    40   19   20 ar
    41   19   40 1
    42   20   21 1
    43   21   41 1
    44   21   42 1
    45   22   43 1
    46   22   44 1
