@<TRIPOS>MOLECULE
ZINC64403635
   48    50     0     0     0
SMALL
USER_CHARGES

@<TRIPOS>ATOM
      1 C1          2.6551   -0.6631   -0.0597 C.3       1 <0>        -0.1168
      2 C2          2.1464   -0.0338   -1.3605 C.3       1 <0>         0.1080
      3 N1          2.1282    1.4269   -1.2037 N.am      1 <0>        -0.6134
      4 C3          1.4117    2.0057   -0.0589 C.3       1 <0>         0.1150
      5 C4          1.9287    1.3536    1.2272 C.3       1 <0>        -0.1254
      6 C5          1.8020   -0.1671    1.1100 C.3       1 <0>        -0.1087
      7 C6          2.2781   -0.8105    2.3869 C.2       1 <0>         0.5208
      8 O1          3.2078   -1.5888    2.3638 O.2       1 <0>        -0.5399
      9 N2          1.6706   -0.5209    3.5546 N.am      1 <0>        -0.8563
     10 C7          2.7572    2.2209   -2.0927 C.2       1 <0>         0.5750
     11 O2          2.6576    3.4314   -2.0052 O.2       1 <0>        -0.5749
     12 C8          3.5331    1.6481   -3.1273 C.2       1 <0>        -0.3506
     13 C9          4.2547    2.4402   -3.9467 C.2       1 <0>         0.2515
     14 N3          4.3383    3.7722   -3.7483 N.pl3     1 <0>        -0.7093
     15 C10         5.5191    4.4599   -4.3158 C.3       1 <0>         0.4282
     16 H1          6.3530    4.4564   -3.6139 H         1 <0>         0.1333
     17 S1          5.8663    3.3798   -5.7707 S.3       1 <0>        -0.2902
     18 C11         5.0171    1.8732   -5.1336 C.3       1 <0>        -0.0429
     19 N4          5.1882    5.8244   -4.7339 N.am      1 <0>        -0.7037
     20 C12         6.1730    6.7081   -4.9903 C.2       1 <0>         0.5899
     21 O3          7.3326    6.4032   -4.7851 O.2       1 <0>        -0.5303
     22 C13         5.8455    8.0414   -5.5182 C.2       1 <0>        -0.2840
     23 C14         6.8567    8.9204   -5.9007 C.2       1 <0>         0.0758
     24 C15         6.5077   10.1763   -6.3968 C.2       1 <0>        -0.2421
     25 C16         5.2009   10.5285   -6.5019 C.2       1 <0>         0.1715
     26 N5          4.2128    9.6794   -6.1316 N.am      1 <0>        -0.5981
     27 C17         4.4943    8.4529   -5.6524 C.2       1 <0>         0.5335
     28 O4          3.5912    7.7007   -5.3295 O.2       1 <0>        -0.5437
     29 H2          2.5829   -1.7486   -0.1281 H         1 <0>         0.0850
     30 H3          3.6945   -0.3766    0.1008 H         1 <0>         0.0771
     31 H4          2.8100   -0.3050   -2.1816 H         1 <0>         0.0968
     32 H5          1.1381   -0.3915   -1.5695 H         1 <0>         0.0703
     33 H6          1.5906    3.0802   -0.0213 H         1 <0>         0.0965
     34 H7          0.3435    1.8144   -0.1618 H         1 <0>         0.0682
     35 H8          2.9749    1.6211    1.3757 H         1 <0>         0.0740
     36 H9          1.3394    1.7035    2.0748 H         1 <0>         0.0792
     37 H10         0.7590   -0.4323    0.9369 H         1 <0>         0.1012
     38 H11         0.9269    0.1017    3.5732 H         1 <0>         0.4014
     39 H12         1.9770   -0.9350    4.3765 H         1 <0>         0.4022
     40 H13         3.5478    0.5765   -3.2612 H         1 <0>         0.1439
     41 H14         3.6563    4.2563   -3.2569 H         1 <0>         0.4330
     42 H15         5.7383    1.1214   -4.8130 H         1 <0>         0.1278
     43 H16         4.3344    1.4657   -5.8793 H         1 <0>         0.1326
     44 H17         4.2604    6.0918   -4.8263 H         1 <0>         0.4239
     45 H18         7.8944    8.6338   -5.8141 H         1 <0>         0.1546
     46 H19         7.2787   10.8702   -6.6977 H         1 <0>         0.1601
     47 H20         4.9443   11.5041   -6.8877 H         1 <0>         0.1765
     48 H21         3.2875    9.9577   -6.2170 H         1 <0>         0.4235
@<TRIPOS>BOND
     1    1    6 1
     2    1    2 1
     3    1   29 1
     4    1   30 1
     5    2    3 1
     6    2   31 1
     7    2   32 1
     8    3    4 1
     9    3   10 am
    10    4    5 1
    11    4   33 1
    12    4   34 1
    13    5    6 1
    14    5   35 1
    15    5   36 1
    16    6    7 1
    17    6   37 1
    18    7    8 2
    19    7    9 am
    20    9   38 1
    21    9   39 1
    22   10   11 2
    23   10   12 1
    24   12   40 1
    25   12   13 2
    26   13   18 1
    27   13   14 1
    28   14   15 1
    29   14   41 1
    30   15   16 1
    31   15   17 1
    32   15   19 1
    33   17   18 1
    34   18   42 1
    35   18   43 1
    36   19   20 am
    37   19   44 1
    38   20   21 2
    39   20   22 1
    40   22   27 1
    41   22   23 2
    42   23   24 1
    43   23   45 1
    44   24   25 2
    45   24   46 1
    46   25   26 1
    47   25   47 1
    48   26   27 am
    49   26   48 1
    50   27   28 2
