@<TRIPOS>MOLECULE
ZINC66503947
   49    51     0     0     0
SMALL
USER_CHARGES

@<TRIPOS>ATOM
      1 C1         -0.0187    1.5258    0.0104 C.3       1 <0>        -0.1499
      2 C2          0.0021   -0.0041    0.0020 C.3       1 <0>         0.0497
      3 O1         -1.3386   -0.4987    0.0122 O.3       1 <0>        -0.3037
      4 C3         -1.4984   -1.8492    0.0064 C.ar      1 <0>         0.1386
      5 C4         -0.3893   -2.6797   -0.0028 C.ar      1 <0>        -0.1976
      6 C5         -0.5535   -4.0523   -0.0082 C.ar      1 <0>        -0.0168
      7 C6         -1.8231   -4.5996   -0.0047 C.ar      1 <0>        -0.6263
      8 C7         -2.9339   -3.7768    0.0040 C.ar      1 <0>        -0.0757
      9 C8         -2.7762   -2.4001    0.0157 C.ar      1 <0>         0.0777
     10 O2         -3.8679   -1.5893    0.0304 O.3       1 <0>        -0.3070
     11 C9         -5.1479   -2.2246    0.0392 C.3       1 <0>         0.0455
     12 C10        -6.2459   -1.1592    0.0553 C.3       1 <0>        -0.1471
     13 S1         -2.0258   -6.3499   -0.0121 S.o2      1 <0>         2.6465
     14 O3         -3.3122   -6.6075   -0.5581 O.2       1 <0>        -1.0102
     15 O4         -0.8380   -6.8939   -0.5712 O.2       1 <0>        -0.9981
     16 N1         -2.0745   -6.8439    1.5677 N.2       1 <0>        -1.0548
     17 C11        -2.2179   -8.0952    1.8484 C.2       1 <0>         0.5189
     18 O5         -2.3281   -9.0011    0.8546 O.3       1 <0>        -0.7162
     19 C12        -2.2623   -8.5447    3.2861 C.3       1 <0>        -0.1028
     20 H1         -3.1808   -9.0441    3.5944 H         1 <0>         0.1166
     21 C13        -1.5513   -7.6712    4.3216 C.3       1 <0>        -0.1528
     22 C14        -0.9529   -9.0210    3.9181 C.3       1 <0>        -0.1083
     23 H2         -1.0100   -9.8335    4.6424 H         1 <0>         0.1104
     24 C15         0.2825   -9.0048    3.0552 C.ar      1 <0>        -0.0430
     25 C16         0.7334   -7.8145    2.5160 C.ar      1 <0>        -0.1002
     26 C17         1.8666   -7.7996    1.7245 C.ar      1 <0>        -0.1097
     27 C18         2.5492   -8.9749    1.4726 C.ar      1 <0>        -0.1306
     28 C19         2.0989  -10.1651    2.0125 C.ar      1 <0>        -0.1270
     29 C20         0.9681  -10.1794    2.8075 C.ar      1 <0>        -0.1149
     30 H3          1.0039    1.9031    0.0027 H         1 <0>         0.0768
     31 H4         -0.5459    1.8868   -0.8726 H         1 <0>         0.0653
     32 H5         -0.5289    1.8773    0.9072 H         1 <0>         0.0658
     33 H6          0.5123   -0.3556   -0.8948 H         1 <0>         0.0623
     34 H7          0.5293   -0.3651    0.8851 H         1 <0>         0.0633
     35 H8          0.6036   -2.2546   -0.0062 H         1 <0>         0.1387
     36 H9          0.3118   -4.6985   -0.0154 H         1 <0>         0.1418
     37 H10        -3.9246   -4.2069    0.0063 H         1 <0>         0.1475
     38 H11        -5.2534   -2.8416   -0.8531 H         1 <0>         0.0643
     39 H12        -5.2364   -2.8511    0.9267 H         1 <0>         0.0654
     40 H13        -7.2222   -1.6438    0.0620 H         1 <0>         0.0776
     41 H14        -6.1404   -0.5422    0.9476 H         1 <0>         0.0646
     42 H15        -6.1573   -0.5327   -0.8322 H         1 <0>         0.0639
     43 H16        -1.0515   -6.7714    3.9630 H         1 <0>         0.1108
     44 H17        -2.0019   -7.5962    5.3113 H         1 <0>         0.0918
     45 H18         0.2001   -6.8962    2.7129 H         1 <0>         0.1326
     46 H19         2.2185   -6.8697    1.3027 H         1 <0>         0.1150
     47 H20         3.4342   -8.9634    0.8536 H         1 <0>         0.1127
     48 H21         2.6320  -11.0835    1.8154 H         1 <0>         0.1137
     49 H22         0.6183  -11.1086    3.2324 H         1 <0>         0.1149
@<TRIPOS>BOND
     1    1    2 1
     2    1   30 1
     3    1   31 1
     4    1   32 1
     5    2    3 1
     6    2   33 1
     7    2   34 1
     8    3    4 1
     9    4    9 ar
    10    4    5 ar
    11    5    6 ar
    12    5   35 1
    13    6    7 ar
    14    6   36 1
    15    7    8 ar
    16    7   13 1
    17    8    9 ar
    18    8   37 1
    19    9   10 1
    20   10   11 1
    21   11   12 1
    22   11   38 1
    23   11   39 1
    24   12   40 1
    25   12   41 1
    26   12   42 1
    27   13   14 2
    28   13   15 2
    29   13   16 1
    30   16   17 2
    31   17   18 1
    32   17   19 1
    33   19   20 1
    34   19   22 1
    35   19   21 1
    36   21   22 1
    37   21   43 1
    38   21   44 1
    39   22   23 1
    40   22   24 1
    41   24   29 ar
    42   24   25 ar
    43   25   26 ar
    44   25   45 1
    45   26   27 ar
    46   26   46 1
    47   27   28 ar
    48   27   47 1
    49   28   29 ar
    50   28   48 1
    51   29   49 1
