@<TRIPOS>MOLECULE
C36781134
 20 20 0 0 0
SMALL
GASTEIGER

@<TRIPOS>ATOM
      1 C           0.0000    0.0000    0.0000 C.3     1  UNL1        0.0019
      2 C           0.0000    0.0000    0.0000 C.3     1  UNL1        0.0234
      3 C           0.0000    0.0000    0.0000 C.3     1  UNL1        0.1152
      4 N           0.0000    0.0000    0.0000 N.am    1  UNL1       -0.2042
      5 C           0.0000    0.0000    0.0000 C.2     1  UNL1        0.2611
      6 O           0.0000    0.0000    0.0000 O.2     1  UNL1       -0.2717
      7 C           0.0000    0.0000    0.0000 C.3     1  UNL1        0.2017
      8 N           0.0000    0.0000    0.0000 N.3     1  UNL1       -0.0678
      9 S           0.0000    0.0000    0.0000 S.O2    1  UNL1        0.0783
     10 O           0.0000    0.0000    0.0000 O.2     1  UNL1       -0.1516
     11 O           0.0000    0.0000    0.0000 O.2     1  UNL1       -0.1516
     12 C           0.0000    0.0000    0.0000 C.ar    1  UNL1        0.1362
     13 C           0.0000    0.0000    0.0000 C.ar    1  UNL1        0.0286
     14 C           0.0000    0.0000    0.0000 C.ar    1  UNL1        0.0453
     15 S           0.0000    0.0000    0.0000 S.2     1  UNL1       -0.0776
     16 C           0.0000    0.0000    0.0000 C.ar    1  UNL1        0.0825
     17 BR          0.0000    0.0000    0.0000 Br      1  UNL1       -0.0405
     18 C           0.0000    0.0000    0.0000 C.2     1  UNL1        0.0789
     19 O           0.0000    0.0000    0.0000 O.co2   1  UNL1       -0.5441
     20 O           0.0000    0.0000    0.0000 O.co2   1  UNL1       -0.5441
@<TRIPOS>UNITY_ATOM_ATTR
20 1
charge -1
@<TRIPOS>BOND
     1     1     2    1
     2     2     3    1
     3     3     4    1
     4     4     5   am
     5     5     6    2
     6     5     7    1
     7     7     8    1
     8     8     9    1
     9     9    10    2
    10     9    11    2
    11     9    12    1
    12    12    13   ar
    13    13    14   ar
    14    14    15   ar
    15    15    16   ar
    16    12    16   ar
    17    16    17    1
    18    14    18    1
    19    18    19   ar
    20    18    20   ar

