@<TRIPOS>MOLECULE
C35721208
 16 17 0 0 0
SMALL
GASTEIGER

@<TRIPOS>ATOM
      1 C           0.0000    0.0000    0.0000 C.3     1  UNL1        0.0004
      2 C           0.0000    0.0000    0.0000 C.3     1  UNL1        0.0004
      3 C           0.0000    0.0000    0.0000 C.3     1  UNL1        0.0057
      4 C           0.0000    0.0000    0.0000 C.3     1  UNL1        0.0407
      5 C           0.0000    0.0000    0.0000 C.3     1  UNL1        0.0057
      6 C           0.0000    0.0000    0.0000 C.3     1  UNL1        0.0920
      7 C           0.0000    0.0000    0.0000 C.2     1  UNL1        0.2417
      8 O           0.0000    0.0000    0.0000 O.2     1  UNL1       -0.2733
      9 N           0.0000    0.0000    0.0000 N.am    1  UNL1       -0.2054
     10 C           0.0000    0.0000    0.0000 C.3     1  UNL1        0.1151
     11 C           0.0000    0.0000    0.0000 C.3     1  UNL1        0.0217
     12 C           0.0000    0.0000    0.0000 C.3     1  UNL1        0.0018
     13 C           0.0000    0.0000    0.0000 C.3     1  UNL1        0.0018
     14 C           0.0000    0.0000    0.0000 C.2     1  UNL1        0.0501
     15 O           0.0000    0.0000    0.0000 O.co2   1  UNL1       -0.5492
     16 O           0.0000    0.0000    0.0000 O.co2   1  UNL1       -0.5492
@<TRIPOS>UNITY_ATOM_ATTR
16 1
charge -1
@<TRIPOS>BOND
     1     1     2    1
     2     2     3    1
     3     3     4    1
     4     4     5    1
     5     1     5    1
     6     4     6    1
     7     6     7    1
     8     7     8    2
     9     7     9   am
    10     9    10    1
    11    10    11    1
    12    11    12    1
    13    12    13    1
    14    11    13    1
    15     4    14    1
    16    14    15   ar
    17    14    16   ar

