@<TRIPOS>MOLECULE
CHEMBL394792
   37    38     0     0     0
SMALL
USER_CHARGES

@<TRIPOS>ATOM
      1 C1         -0.0183    1.4978    0.0103 C.2       1 <0>        -0.1212
      2 C2          1.1463    2.1484    0.0027 C.2       1 <0>        -0.1149
      3 C3          2.4124    1.3868   -0.0007 C.2       1 <0>         0.1840
      4 C4          2.4251    0.1201   -0.4468 C.2       1 <0>        -0.2443
      5 C5          1.1304   -0.4804   -0.9175 C.3       1 <0>        -0.0056
      6 C6          0.0021   -0.0041    0.0020 C.3       1 <0>         0.1695
      7 N1         -1.2601   -0.5791   -0.4522 N.am      1 <0>        -0.7168
      8 C7         -1.2607   -1.8529   -0.9129 C.2       1 <0>         0.5540
      9 O1         -2.2865   -2.3503   -1.3361 O.2       1 <0>        -0.5100
     10 C8         -0.0085   -2.6323   -0.8981 C.2       1 <0>        -0.1056
     11 C9          1.1623   -1.9833   -0.9069 C.2       1 <0>        -0.1515
     12 C10         2.4688   -2.7344   -0.9066 C.3       1 <0>         0.5085
     13 F1          2.2157   -4.1103   -0.8958 F         1 <0>        -0.1717
     14 F2          3.1973   -2.4033   -2.0542 F         1 <0>        -0.1666
     15 F3          3.2062   -2.3870    0.2303 F         1 <0>        -0.1689
     16 N2          3.5897    1.9810    0.4581 N.pl3     1 <0>        -0.6127
     17 C11         3.5716    3.3628    0.9443 C.3       1 <0>         0.0801
     18 C12         3.2843    3.3710    2.4471 C.3       1 <0>         0.4302
     19 F4          4.2820    2.6541    3.1165 F         1 <0>        -0.1817
     20 F5          3.2670    4.6905    2.9114 F         1 <0>        -0.1786
     21 F6          2.0413    2.7757    2.6875 F         1 <0>        -0.1756
     22 C13         4.8431    1.2226    0.4532 C.3       1 <0>         0.0784
     23 C14         5.5604    1.4315   -0.8820 C.3       1 <0>         0.4299
     24 F7          5.8378    2.7918   -1.0545 F         1 <0>        -0.1827
     25 F8          6.7573    0.7072   -0.8867 F         1 <0>        -0.1777
     26 F9          4.7419    0.9864   -1.9257 F         1 <0>        -0.1731
     27 H1         -0.9533    2.0380    0.0265 H         1 <0>         0.1446
     28 H2          1.1636    3.2283   -0.0014 H         1 <0>         0.1350
     29 H3          3.3413   -0.4515   -0.4670 H         1 <0>         0.1339
     30 H4          0.9205   -0.1330   -1.9291 H         1 <0>         0.1137
     31 H5          0.1972   -0.3603    1.0135 H         1 <0>         0.0963
     32 H6         -2.0797   -0.0611   -0.4246 H         1 <0>         0.4145
     33 H7         -0.0359   -3.7118   -0.8802 H         1 <0>         0.1682
     34 H8          4.5401    3.8266    0.7570 H         1 <0>         0.1289
     35 H9          2.7943    3.9214    0.4228 H         1 <0>         0.1292
     36 H10         5.4808    1.5693    1.2663 H         1 <0>         0.1299
     37 H11         4.6270    0.1627    0.5876 H         1 <0>         0.1305
@<TRIPOS>BOND
     1    1    6 1
     2    1    2 2
     3    1   27 1
     4    2    3 1
     5    2   28 1
     6    3    4 2
     7    3   16 1
     8    4    5 1
     9    4   29 1
    10    5   11 1
    11    5    6 1
    12    5   30 1
    13    6    7 1
    14    6   31 1
    15    7    8 am
    16    7   32 1
    17    8    9 2
    18    8   10 1
    19   10   11 2
    20   10   33 1
    21   11   12 1
    22   12   13 1
    23   12   14 1
    24   12   15 1
    25   16   17 1
    26   16   22 1
    27   17   18 1
    28   17   34 1
    29   17   35 1
    30   18   19 1
    31   18   20 1
    32   18   21 1
    33   22   23 1
    34   22   36 1
    35   22   37 1
    36   23   24 1
    37   23   25 1
    38   23   26 1
