@<TRIPOS>MOLECULE
CHEMBL74671
   58    62     0     0     0
SMALL
USER_CHARGES

@<TRIPOS>ATOM
      1 C1         -0.0188    1.5319    0.0105 C.3       1 <0>        -0.1342
      2 C2          0.0021   -0.0041    0.0020 C.3       1 <0>        -0.0431
      3 C3         -1.4117   -0.5297    0.0587 C.3       1 <0>        -0.1095
      4 C4         -1.7906   -0.9186    1.5023 C.3       1 <0>        -0.1069
      5 C5         -1.1693    0.0811    2.4602 C.3       1 <0>        -0.0709
      6 C6          0.3468   -0.1548    2.5166 C.3       1 <0>        -0.0720
      7 C7          0.8457   -0.5553    1.1692 C.3       1 <0>        -0.0702
      8 C8          2.2675   -0.1277    0.7784 C.3       1 <0>        -0.1142
      9 C9          2.2971   -0.4676   -0.7393 C.3       1 <0>        -0.1382
     10 C10         0.8317   -0.4137   -1.2137 C.3       1 <0>         0.1155
     11 C11         0.4106   -1.7694   -1.8057 C.3       1 <0>        -0.1480
     12 C12         1.0983   -1.6488   -3.2045 C.3       1 <0>        -0.1604
     13 C13         0.7862   -0.1690   -3.5412 C.3       1 <0>         0.0460
     14 O1          0.6918    0.5272   -2.2857 O.3       1 <0>        -0.3665
     15 C14         1.0079    1.0259    3.2029 C.3       1 <0>        -0.1062
     16 C15         0.4624    1.0891    4.6452 C.3       1 <0>        -0.1235
     17 C16        -1.0501    1.2315    4.6320 C.3       1 <0>         0.1555
     18 C17        -1.7333    0.0840    3.8706 C.3       1 <0>        -0.0423
     19 C18        -3.2180    0.3620    3.8507 C.2       1 <0>        -0.0837
     20 C19        -3.7903    0.9029    4.9267 C.2       1 <0>        -0.1962
     21 C20        -2.9670    1.2067    6.1108 C.2       1 <0>         0.5458
     22 O2         -3.4825    1.3418    7.2026 O.2       1 <0>        -0.5340
     23 N1         -1.6259    1.3358    5.9689 N.am      1 <0>        -0.6125
     24 C21        -0.7928    1.5808    7.1476 C.3       1 <0>         0.0832
     25 C22        -1.4991   -1.2507    4.5723 C.3       1 <0>        -0.1370
     26 H1          0.9813    1.9100   -0.2017 H         1 <0>         0.0571
     27 H2         -0.7117    1.8901   -0.7509 H         1 <0>         0.0577
     28 H3         -0.3406    1.8855    0.9900 H         1 <0>         0.0561
     29 H4         -2.1024    0.2439   -0.2952 H         1 <0>         0.0652
     30 H5         -1.5246   -1.4080   -0.5775 H         1 <0>         0.0690
     31 H6         -2.8766   -0.9163    1.6066 H         1 <0>         0.0663
     32 H7         -1.4133   -1.9220    1.7148 H         1 <0>         0.0644
     33 H8         -1.3550    1.0909    2.0644 H         1 <0>         0.0788
     34 H9          0.5350   -1.0268    3.1689 H         1 <0>         0.0682
     35 H10         0.8130   -1.6646    1.1151 H         1 <0>         0.0678
     36 H11         2.4381    0.9286    0.9500 H         1 <0>         0.0742
     37 H12         3.0064   -0.7286    1.3133 H         1 <0>         0.0648
     38 H13         2.8947    0.2662   -1.2765 H         1 <0>         0.0739
     39 H14         2.7019   -1.4683   -0.8878 H         1 <0>         0.0685
     40 H15         0.8211   -2.6026   -1.2419 H         1 <0>         0.0834
     41 H16        -0.6652   -1.8532   -1.9325 H         1 <0>         0.0850
     42 H17         2.1674   -1.8149   -3.1264 H         1 <0>         0.0776
     43 H18         0.6311   -2.3169   -3.9217 H         1 <0>         0.0809
     44 H19         1.5901    0.2517   -4.1396 H         1 <0>         0.0700
     45 H20        -0.1608   -0.1033   -4.0716 H         1 <0>         0.0662
     46 H21         2.0870    0.8824    3.2343 H         1 <0>         0.0748
     47 H22         0.7681    1.9520    2.6873 H         1 <0>         0.0702
     48 H23         0.7619    0.1905    5.1777 H         1 <0>         0.0741
     49 H24         0.9108    1.9610    5.1311 H         1 <0>         0.0733
     50 H25        -1.2917    2.1650    4.0990 H         1 <0>         0.0665
     51 H26        -3.8053    0.1237    2.9761 H         1 <0>         0.1338
     52 H27        -4.8504    1.1176    4.9310 H         1 <0>         0.1450
     53 H28        -0.7016    2.6545    7.3114 H         1 <0>         0.0552
     54 H29        -1.2532    1.1179    8.0205 H         1 <0>         0.0760
     55 H30         0.1967    1.1522    6.9887 H         1 <0>         0.0729
     56 H31        -0.4286   -1.4477    4.6304 H         1 <0>         0.0669
     57 H32        -1.9162   -1.2103    5.5785 H         1 <0>         0.0557
     58 H33        -1.9852   -2.0474    4.0092 H         1 <0>         0.0639
@<TRIPOS>BOND
     1    1    2 1
     2    1   26 1
     3    1   27 1
     4    1   28 1
     5    2    7 1
     6    2   10 1
     7    2    3 1
     8    3    4 1
     9    3   29 1
    10    3   30 1
    11    4    5 1
    12    4   31 1
    13    4   32 1
    14    5   18 1
    15    5    6 1
    16    5   33 1
    17    6    7 1
    18    6   15 1
    19    6   34 1
    20    7    8 1
    21    7   35 1
    22    8    9 1
    23    8   36 1
    24    8   37 1
    25    9   10 1
    26    9   38 1
    27    9   39 1
    28   10   14 1
    29   10   11 1
    30   11   12 1
    31   11   40 1
    32   11   41 1
    33   12   13 1
    34   12   42 1
    35   12   43 1
    36   13   14 1
    37   13   44 1
    38   13   45 1
    39   15   16 1
    40   15   46 1
    41   15   47 1
    42   16   17 1
    43   16   48 1
    44   16   49 1
    45   17   23 1
    46   17   18 1
    47   17   50 1
    48   18   19 1
    49   18   25 1
    50   19   20 2
    51   19   51 1
    52   20   21 1
    53   20   52 1
    54   21   22 2
    55   21   23 am
    56   23   24 1
    57   24   53 1
    58   24   54 1
    59   24   55 1
    60   25   56 1
    61   25   57 1
    62   25   58 1
