@<TRIPOS>MOLECULE
CHEMBL78704
   65    69     0     0     0
SMALL
USER_CHARGES

@<TRIPOS>ATOM
      1 C1         -0.2614    1.6786    0.9776 C.3       1 <0>        -0.0463
      2 C2         -0.1828    0.2112    0.8908 C.1       1 <0>        -0.1606
      3 C3         -0.1202   -0.9591    0.8216 C.1       1 <0>        -0.2083
      4 C4         -0.0419   -2.4213    0.7351 C.3       1 <0>         0.2506
      5 C5          0.7003   -2.8533   -0.5605 C.3       1 <0>        -0.1447
      6 C6         -0.3955   -3.1455   -1.6153 C.3       1 <0>        -0.1160
      7 C7         -1.7154   -2.7995   -0.9262 C.3       1 <0>        -0.0779
      8 C8         -1.4206   -3.0813    0.5667 C.3       1 <0>        -0.0293
      9 C9         -2.5550   -2.4714    1.3688 C.3       1 <0>        -0.0735
     10 C10        -3.8453   -3.0783    0.8594 C.2       1 <0>        -0.1472
     11 C11        -4.0076   -3.5633   -0.3359 C.2       1 <0>        -0.0945
     12 C12        -2.9339   -3.5473   -1.3959 C.3       1 <0>        -0.0297
     13 C13        -2.6323   -4.9116   -1.9787 C.3       1 <0>        -0.1022
     14 C14        -3.8302   -5.8548   -1.8964 C.3       1 <0>        -0.1064
     15 C15        -5.1137   -5.0608   -1.8987 C.2       1 <0>        -0.0016
     16 C16        -5.9877   -5.1916   -2.8873 C.2       1 <0>        -0.2456
     17 C17        -7.2407   -4.4414   -2.9026 C.2       1 <0>         0.3894
     18 O1         -8.0284   -4.5905   -3.8135 O.2       1 <0>        -0.4636
     19 C18        -7.5545   -3.4832   -1.7818 C.3       1 <0>        -0.1693
     20 C19        -6.2492   -2.9658   -1.1783 C.3       1 <0>        -0.1025
     21 C20        -5.3650   -4.1305   -0.7311 C.3       1 <0>         0.0086
     22 C21        -6.0090   -4.8988    0.4268 C.3       1 <0>        -0.0657
     23 C22        -5.1873   -6.1238    0.7353 C.ar      1 <0>        -0.0859
     24 C23        -5.4786   -7.3252    0.1167 C.ar      1 <0>        -0.1085
     25 C24        -4.7249   -8.4489    0.3997 C.ar      1 <0>        -0.1220
     26 C25        -3.6797   -8.3712    1.3010 C.ar      1 <0>        -0.0851
     27 C26        -3.3878   -7.1696    1.9189 C.ar      1 <0>        -0.1180
     28 C27        -4.1388   -6.0449    1.6327 C.ar      1 <0>        -0.1025
     29 C28        -2.8587   -9.5965    1.6102 C.3       1 <0>        -0.1172
     30 C29        -1.3027   -4.5792    0.8833 C.3       1 <0>        -0.1376
     31 O2          0.6237   -2.9558    1.8850 O.3       1 <0>        -0.5410
     32 H1          0.7412    2.0897    1.0957 H         1 <0>         0.0820
     33 H2         -0.7108    2.0729    0.0663 H         1 <0>         0.0826
     34 H3         -0.8726    1.9596    1.8353 H         1 <0>         0.0826
     35 H4          1.3429   -2.0431   -0.9053 H         1 <0>         0.0676
     36 H5          1.2922   -3.7472   -0.3743 H         1 <0>         0.0836
     37 H6         -0.2520   -2.5049   -2.4871 H         1 <0>         0.0661
     38 H7         -0.3689   -4.1909   -1.9094 H         1 <0>         0.0776
     39 H8         -1.9050   -1.7245   -1.0643 H         1 <0>         0.0722
     40 H9         -2.4360   -2.7081    2.4280 H         1 <0>         0.0756
     41 H10        -2.6045   -1.3917    1.2368 H         1 <0>         0.0752
     42 H11        -4.6795   -3.0721    1.5448 H         1 <0>         0.1083
     43 H12        -3.3484   -2.9469   -2.2313 H         1 <0>         0.0664
     44 H13        -2.3767   -4.7816   -3.0401 H         1 <0>         0.0609
     45 H14        -1.7789   -5.3704   -1.4927 H         1 <0>         0.0765
     46 H15        -3.8212   -6.5262   -2.7550 H         1 <0>         0.0723
     47 H16        -3.7668   -6.4411   -0.9808 H         1 <0>         0.1006
     48 H17        -5.7681   -5.8708   -3.6988 H         1 <0>         0.1300
     49 H18        -8.1243   -2.6393   -2.1843 H         1 <0>         0.0961
     50 H19        -8.1556   -3.9804   -1.0235 H         1 <0>         0.1035
     51 H20        -5.7129   -2.3752   -1.9256 H         1 <0>         0.0737
     52 H21        -6.4694   -2.3289   -0.3192 H         1 <0>         0.0815
     53 H22        -6.0520   -4.2587    1.3081 H         1 <0>         0.0849
     54 H23        -7.0185   -5.1995    0.1465 H         1 <0>         0.0793
     55 H24        -6.2952   -7.3859   -0.5875 H         1 <0>         0.1182
     56 H25        -4.9530   -9.3877   -0.0831 H         1 <0>         0.1196
     57 H26        -2.5714   -7.1089    2.6233 H         1 <0>         0.1202
     58 H27        -3.9084   -5.1052    2.1127 H         1 <0>         0.1255
     59 H28        -2.0180   -9.6545    0.9189 H         1 <0>         0.0700
     60 H29        -2.4850   -9.5350    2.6323 H         1 <0>         0.0659
     61 H30        -3.4792  -10.4862    1.5031 H         1 <0>         0.0652
     62 H31        -0.9823   -4.7080    1.9171 H         1 <0>         0.0639
     63 H32        -2.2715   -5.0581    0.7407 H         1 <0>         0.0760
     64 H33        -0.5706   -5.0349    0.2166 H         1 <0>         0.0527
     65 H34         1.5258   -2.6286    2.0049 H         1 <0>         0.3776
@<TRIPOS>BOND
     1    1    2 1
     2    1   32 1
     3    1   33 1
     4    1   34 1
     5    2    3 3
     6    3    4 1
     7    4    8 1
     8    4    5 1
     9    4   31 1
    10    5    6 1
    11    5   35 1
    12    5   36 1
    13    6    7 1
    14    6   37 1
    15    6   38 1
    16    7   12 1
    17    7    8 1
    18    7   39 1
    19    8    9 1
    20    8   30 1
    21    9   10 1
    22    9   40 1
    23    9   41 1
    24   10   11 2
    25   10   42 1
    26   11   21 1
    27   11   12 1
    28   12   13 1
    29   12   43 1
    30   13   14 1
    31   13   44 1
    32   13   45 1
    33   14   15 1
    34   14   46 1
    35   14   47 1
    36   15   21 1
    37   15   16 2
    38   16   17 1
    39   16   48 1
    40   17   18 2
    41   17   19 1
    42   19   20 1
    43   19   49 1
    44   19   50 1
    45   20   21 1
    46   20   51 1
    47   20   52 1
    48   21   22 1
    49   22   23 1
    50   22   53 1
    51   22   54 1
    52   23   28 ar
    53   23   24 ar
    54   24   25 ar
    55   24   55 1
    56   25   26 ar
    57   25   56 1
    58   26   27 ar
    59   26   29 1
    60   27   28 ar
    61   27   57 1
    62   28   58 1
    63   29   59 1
    64   29   60 1
    65   29   61 1
    66   30   62 1
    67   30   63 1
    68   30   64 1
    69   31   65 1
