@<TRIPOS>MOLECULE
ZINC48667063
   33    34     0     0     0
SMALL
USER_CHARGES

@<TRIPOS>ATOM
      1 C1         -0.0187    1.5258    0.0104 C.3       1 <0>        -0.1492
      2 C2          0.0021   -0.0041    0.0020 C.3       1 <0>        -0.0444
      3 C3         -1.4117   -0.5257    0.0127 C.2       1 <0>        -0.1248
      4 C4         -2.2207   -0.8207   -1.0341 C.2       1 <0>        -0.1683
      5 C5         -3.4955   -1.2927   -0.7839 C.2       1 <0>        -0.1246
      6 C6         -3.8991   -1.4465    0.5009 C.2       1 <0>        -0.1759
      7 S1         -2.4530   -0.9228    1.4074 S.3       1 <0>         0.0551
      8 C7         -5.2230   -1.9376    1.0274 C.3       1 <0>         0.1963
      9 N1         -5.1733   -3.3923    1.1933 N.pl3     1 <0>        -1.1077
     10 S2         -6.3305   -4.1631    2.0928 S.o2      1 <0>         2.6927
     11 O1         -6.0269   -5.5504    2.0422 O.2       1 <0>        -0.9445
     12 O2         -6.4346   -3.4502    3.3176 O.2       1 <0>        -0.9315
     13 C8         -7.8667   -3.9530    1.2557 C.ar      1 <0>        -0.6628
     14 C9         -8.5281   -5.0514    0.7387 C.ar      1 <0>        -0.0043
     15 C10        -9.7332   -4.8874    0.0818 C.ar      1 <0>        -0.1178
     16 C11       -10.2782   -3.6248   -0.0593 C.ar      1 <0>        -0.0443
     17 C12        -9.6179   -2.5248    0.4573 C.ar      1 <0>        -0.0503
     18 C13        -8.4135   -2.6898    1.1208 C.ar      1 <0>         0.0463
     19 Cl1        -7.5872   -1.3111    1.7765 Cl        1 <0>        -0.0168
     20 Cl2       -10.3018   -0.9391    0.2803 Cl        1 <0>        -0.0323
     21 H1          1.0039    1.9031    0.0027 H         1 <0>         0.0656
     22 H2         -0.5459    1.8868   -0.8726 H         1 <0>         0.0592
     23 H3         -0.5289    1.8773    0.9072 H         1 <0>         0.0585
     24 H4          0.5123   -0.3556   -0.8948 H         1 <0>         0.0883
     25 H5          0.5293   -0.3651    0.8851 H         1 <0>         0.0808
     26 H6         -1.8744   -0.6887   -2.0486 H         1 <0>         0.1347
     27 H7         -4.1603   -1.5349   -1.5999 H         1 <0>         0.1349
     28 H8         -5.4276   -1.4689    1.9901 H         1 <0>         0.0977
     29 H9         -6.0130   -1.6791    0.3223 H         1 <0>         0.0942
     30 H10        -4.4626   -3.9040    0.7762 H         1 <0>         0.4257
     31 H11        -8.1028   -6.0381    0.8478 H         1 <0>         0.1617
     32 H12       -10.2491   -5.7461   -0.3217 H         1 <0>         0.1534
     33 H13       -11.2195   -3.4973   -0.5733 H         1 <0>         0.1542
@<TRIPOS>BOND
     1    1    2 1
     2    1   21 1
     3    1   22 1
     4    1   23 1
     5    2    3 1
     6    2   24 1
     7    2   25 1
     8    3    7 1
     9    3    4 2
    10    4    5 1
    11    4   26 1
    12    5    6 2
    13    5   27 1
    14    6    7 1
    15    6    8 1
    16    8    9 1
    17    8   28 1
    18    8   29 1
    19    9   10 1
    20    9   30 1
    21   10   11 2
    22   10   12 2
    23   10   13 1
    24   13   18 ar
    25   13   14 ar
    26   14   15 ar
    27   14   31 1
    28   15   16 ar
    29   15   32 1
    30   16   17 ar
    31   16   33 1
    32   17   18 ar
    33   17   20 1
    34   18   19 1
