@<TRIPOS>MOLECULE
ZINC37075642
   40    42     0     0     0
SMALL
USER_CHARGES

@<TRIPOS>ATOM
      1 C1         -0.0187    1.5258    0.0104 C.3       1 <0>        -0.1484
      2 C2          0.0021   -0.0041    0.0020 C.3       1 <0>        -0.0940
      3 H1          0.5123   -0.3556   -0.8948 H         1 <0>         0.0670
      4 C3         -1.4333   -0.5336    0.0129 C.3       1 <0>        -0.1146
      5 C4         -1.4126   -2.0635    0.0045 C.3       1 <0>        -0.1185
      6 C5         -0.6726   -2.5703    1.2440 C.3       1 <0>        -0.1355
      7 C6          0.7628   -2.0407    1.2331 C.3       1 <0>         0.1485
      8 H2          1.2900   -2.4018    2.1162 H         1 <0>         0.0815
      9 C7          0.7421   -0.5109    1.2415 C.3       1 <0>        -0.1228
     10 N1          1.4485   -2.5132    0.0278 N.pl3     1 <0>        -0.7331
     11 C8          2.0543   -3.7703    0.0171 C.ar      1 <0>         0.2415
     12 C9          2.0041   -4.5772    1.1440 C.ar      1 <0>        -0.1999
     13 C10         2.6042   -5.8221    1.1314 C.ar      1 <0>        -0.0587
     14 C11         3.2582   -6.2722   -0.0025 C.ar      1 <0>        -0.1799
     15 C12         3.3176   -5.4814   -1.1318 C.ar      1 <0>        -0.0443
     16 C13         2.7112   -4.2254   -1.1344 C.ar      1 <0>        -0.1012
     17 C14         2.7662   -3.3764   -2.3429 C.2       1 <0>        -0.0862
     18 C15         3.8480   -3.0379   -3.1111 C.2       1 <0>        -0.1550
     19 C16         3.6541   -2.2224   -4.2052 C.2       1 <0>        -0.1498
     20 C17         2.4021   -1.7809   -4.4873 C.2       1 <0>        -0.1794
     21 S1          1.4382   -2.5314   -3.1855 S.3       1 <0>         0.0270
     22 H3          1.0039    1.9031    0.0027 H         1 <0>         0.0544
     23 H4         -0.5459    1.8868   -0.8726 H         1 <0>         0.0560
     24 H5         -0.5289    1.8773    0.9072 H         1 <0>         0.0563
     25 H6         -1.9435   -0.1821    0.9097 H         1 <0>         0.0636
     26 H7         -1.9605   -0.1726   -0.8702 H         1 <0>         0.0625
     27 H8         -2.4352   -2.4408    0.0122 H         1 <0>         0.0620
     28 H9         -0.9024   -2.4150   -0.8923 H         1 <0>         0.0634
     29 H10        -1.1828   -2.2188    2.1408 H         1 <0>         0.0711
     30 H11        -0.6578   -3.6602    1.2380 H         1 <0>         0.0667
     31 H12         1.7647   -0.1336    1.2338 H         1 <0>         0.0684
     32 H13         0.2319   -0.1594    2.1383 H         1 <0>         0.0796
     33 H14         1.4815   -1.9522   -0.7628 H         1 <0>         0.3997
     34 H15         1.4958   -4.2323    2.0323 H         1 <0>         0.1262
     35 H16         2.5630   -6.4471    2.0113 H         1 <0>         0.1234
     36 H17         3.7243   -7.2464   -0.0032 H         1 <0>         0.1231
     37 H18         3.8296   -5.8364   -2.0140 H         1 <0>         0.1239
     38 H19         4.8342   -3.4027   -2.8643 H         1 <0>         0.1348
     39 H20         4.4880   -1.9380   -4.8298 H         1 <0>         0.1351
     40 H21         2.0728   -1.1434   -5.2945 H         1 <0>         0.1857
@<TRIPOS>BOND
     1    1    2 1
     2    1   22 1
     3    1   23 1
     4    1   24 1
     5    2    3 1
     6    2    9 1
     7    2    4 1
     8    4    5 1
     9    4   25 1
    10    4   26 1
    11    5    6 1
    12    5   27 1
    13    5   28 1
    14    6    7 1
    15    6   29 1
    16    6   30 1
    17    7    8 1
    18    7    9 1
    19    7   10 1
    20    9   31 1
    21    9   32 1
    22   10   11 1
    23   10   33 1
    24   11   16 ar
    25   11   12 ar
    26   12   13 ar
    27   12   34 1
    28   13   14 ar
    29   13   35 1
    30   14   15 ar
    31   14   36 1
    32   15   16 ar
    33   15   37 1
    34   16   17 1
    35   17   21 1
    36   17   18 2
    37   18   19 1
    38   18   38 1
    39   19   20 2
    40   19   39 1
    41   20   21 1
    42   20   40 1
