@<TRIPOS>MOLECULE
ZINC15275021
   37    39     0     0     0
SMALL
USER_CHARGES
methyl 2-[[4-(3,4-dichlorophenyl)-5-(3-pyridyl)-1,2,4-triazol-3-yl]sulfanyl]acetate
@<TRIPOS>ATOM
      1 C1         -2.7447   -3.4837    6.3219 C.3       1 <0>         0.0354
      2 O1         -3.3432   -2.9701    5.1027 O.3       1 <0>        -0.3475
      3 C2         -2.6157   -2.0978    4.3874 C.2       1 <0>         0.4837
      4 O2         -1.5154   -1.7742    4.7674 O.2       1 <0>        -0.4909
      5 C3         -3.1714   -1.5220    3.1104 C.3       1 <0>        -0.1287
      6 S1         -1.9627   -0.3874    2.3840 S.3       1 <0>         0.0991
      7 C4         -2.8468    0.1229    0.9478 C.2       1 <0>         0.1554
      8 N1         -4.0490   -0.2710    0.5909 N.2       1 <0>        -0.2770
      9 N2         -4.3921    0.2967   -0.5096 N.2       1 <0>        -0.2525
     10 C5         -3.4332    1.0928   -0.9226 C.2       1 <0>         0.2457
     11 N3         -2.4100    1.0027   -0.0044 N.pl3     1 <0>        -0.4174
     12 C6         -1.1807    1.6764   -0.0360 C.ar      1 <0>         0.1148
     13 C7         -0.0045    0.9676   -0.2413 C.ar      1 <0>        -0.0830
     14 C8          1.2049    1.6334   -0.2774 C.ar      1 <0>        -0.0804
     15 C9          1.2464    3.0055   -0.1034 C.ar      1 <0>        -0.0146
     16 C10         0.0756    3.7144    0.1072 C.ar      1 <0>        -0.0211
     17 C11        -1.1373    3.0520    0.1431 C.ar      1 <0>        -0.0784
     18 Cl1         0.1309    5.4357    0.3257 Cl        1 <0>        -0.0223
     19 Cl2         2.7683    3.8394   -0.1487 Cl        1 <0>        -0.0244
     20 C12        -3.4474    1.9257   -2.1436 C.ar      1 <0>        -0.0791
     21 C13        -2.2552    2.4374   -2.6703 C.ar      1 <0>        -0.0592
     22 C14        -2.3229    3.2109   -3.8153 C.ar      1 <0>        -0.1662
     23 C15        -3.5545    3.4520   -4.3978 C.ar      1 <0>         0.1196
     24 N4         -4.6617    2.9565   -3.8797 N.ar      1 <0>        -0.4761
     25 C16        -4.6486    2.2107   -2.7942 C.ar      1 <0>         0.1533
     26 H1         -1.8179   -4.0040    6.0804 H         1 <0>         0.0678
     27 H2         -2.5312   -2.6563    6.9985 H         1 <0>         0.0679
     28 H3         -3.4359   -4.1766    6.8019 H         1 <0>         0.1084
     29 H4         -4.0931   -0.9816    3.3264 H         1 <0>         0.1432
     30 H5         -3.3797   -2.3294    2.4083 H         1 <0>         0.1433
     31 H6         -0.0359   -0.1034   -0.3772 H         1 <0>         0.1528
     32 H7          2.1193    1.0825   -0.4411 H         1 <0>         0.1617
     33 H8         -2.0505    3.6049    0.3070 H         1 <0>         0.1526
     34 H9         -1.3072    2.2337   -2.1947 H         1 <0>         0.1331
     35 H10        -1.4238    3.6220   -4.2500 H         1 <0>         0.1448
     36 H11        -3.6101    4.0556   -5.2917 H         1 <0>         0.1653
     37 H12        -5.5757    1.8193   -2.4023 H         1 <0>         0.1713
@<TRIPOS>BOND
     1    1    2 1
     2    1   26 1
     3    1   27 1
     4    1   28 1
     5    2    3 1
     6    3    4 2
     7    3    5 1
     8    5    6 1
     9    5   29 1
    10    5   30 1
    11    6    7 1
    12    7   11 1
    13    7    8 2
    14    8    9 1
    15    9   10 2
    16   10   11 1
    17   10   20 1
    18   11   12 1
    19   12   17 ar
    20   12   13 ar
    21   13   14 ar
    22   13   31 1
    23   14   15 ar
    24   14   32 1
    25   15   16 ar
    26   15   19 1
    27   16   17 ar
    28   16   18 1
    29   17   33 1
    30   20   25 ar
    31   20   21 ar
    32   21   22 ar
    33   21   34 1
    34   22   23 ar
    35   22   35 1
    36   23   24 ar
    37   23   36 1
    38   24   25 ar
    39   25   37 1
