@<TRIPOS>MOLECULE
ZINC13895782
   41    44     0     0     0
SMALL
USER_CHARGES
[(5R)-3-(4-bromophenyl)-5-(2-hydroxyphenyl)-4,5-dihydropyrazol-1-yl]-(2-thienyl)methanone
@<TRIPOS>ATOM
      1 C1         -1.3511    1.6633    3.5370 C.ar      1 <0>        -0.1233
      2 C2         -1.9137    2.9265    3.5533 C.ar      1 <0>        -0.0970
      3 C3         -1.8644    3.7203    2.4240 C.ar      1 <0>        -0.1415
      4 C4         -1.2456    3.2512    1.2741 C.ar      1 <0>         0.1213
      5 C5         -0.6867    1.9818    1.2588 C.ar      1 <0>        -0.1180
      6 C6         -0.7386    1.1916    2.3910 C.ar      1 <0>        -0.0848
      7 C7         -0.0179    1.4673    0.0101 C.3       1 <0>         0.1633
      8 H1         -0.5187    1.8491   -0.8796 H         1 <0>         0.1073
      9 C8          1.4756    1.8493   -0.0021 C.3       1 <0>        -0.1210
     10 C9          2.1919    0.5178   -0.0161 C.2       1 <0>         0.1467
     11 N1          1.3265   -0.4366   -0.0130 N.2       1 <0>        -0.2353
     12 N2          0.0021   -0.0041    0.0020 N.am      1 <0>        -0.4633
     13 C10        -1.0835   -0.8029    0.0077 C.2       1 <0>         0.6441
     14 O1         -2.1985   -0.3145    0.0206 O.2       1 <0>        -0.4987
     15 C11        -0.9215   -2.2591   -0.0016 C.2       1 <0>        -0.2485
     16 C12        -1.8946   -3.2468    0.0077 C.2       1 <0>        -0.0691
     17 C13        -1.4628   -4.5496   -0.0079 C.2       1 <0>        -0.1834
     18 C14        -0.1285   -4.8063   -0.0213 C.2       1 <0>        -0.2030
     19 S1          0.5792   -3.2237   -0.0200 S.3       1 <0>         0.2116
     20 C15         3.6556    0.3392   -0.0310 C.ar      1 <0>        -0.0205
     21 C16         4.4983    1.4534   -0.0383 C.ar      1 <0>        -0.0804
     22 C17         5.8664    1.2793   -0.0465 C.ar      1 <0>        -0.0915
     23 C18         6.4050    0.0037   -0.0590 C.ar      1 <0>        -0.0745
     24 C19         5.5753   -1.1049   -0.0576 C.ar      1 <0>        -0.0924
     25 C20         4.2056   -0.9449   -0.0437 C.ar      1 <0>        -0.0732
     26 Br1         8.2819   -0.2253   -0.0787 Br        1 <0>        -0.0415
     27 O2         -1.1909    4.0325    0.1635 O.3       1 <0>        -0.4964
     28 H2         -1.3906    1.0442    4.4210 H         1 <0>         0.1267
     29 H3         -2.3917    3.2927    4.4498 H         1 <0>         0.1298
     30 H4         -2.3037    4.7069    2.4373 H         1 <0>         0.1327
     31 H5         -0.2999    0.2048    2.3808 H         1 <0>         0.1179
     32 H6          1.7163    2.4224   -0.8975 H         1 <0>         0.1141
     33 H7          1.7334    2.4128    0.8946 H         1 <0>         0.1111
     34 H8         -2.9463   -3.0017    0.0235 H         1 <0>         0.1455
     35 H9         -2.1752   -5.3613   -0.0051 H         1 <0>         0.1383
     36 H10         0.3704   -5.7641   -0.0302 H         1 <0>         0.1890
     37 H11         4.0795    2.4489   -0.0335 H         1 <0>         0.1403
     38 H12         6.5190    2.1398   -0.0473 H         1 <0>         0.1411
     39 H13         6.0018   -2.0970   -0.0670 H         1 <0>         0.1403
     40 H14         3.5596   -1.8104   -0.0430 H         1 <0>         0.1429
     41 H15        -1.9449    3.9230   -0.4319 H         1 <0>         0.3928
@<TRIPOS>BOND
     1    1    6 ar
     2    1    2 ar
     3    1   28 1
     4    2    3 ar
     5    2   29 1
     6    3    4 ar
     7    3   30 1
     8    4    5 ar
     9    4   27 1
    10    5    6 ar
    11    5    7 1
    12    6   31 1
    13    7    8 1
    14    7   12 1
    15    7    9 1
    16    9   10 1
    17    9   32 1
    18    9   33 1
    19   10   11 2
    20   10   20 1
    21   11   12 1
    22   12   13 am
    23   13   14 2
    24   13   15 1
    25   15   19 1
    26   15   16 2
    27   16   17 1
    28   16   34 1
    29   17   18 2
    30   17   35 1
    31   18   19 1
    32   18   36 1
    33   20   25 ar
    34   20   21 ar
    35   21   22 ar
    36   21   37 1
    37   22   23 ar
    38   22   38 1
    39   23   24 ar
    40   23   26 1
    41   24   25 ar
    42   24   39 1
    43   25   40 1
    44   27   41 1
