@<TRIPOS>MOLECULE
ZINC54444788
   26    28     0     0     0
SMALL
USER_CHARGES

@<TRIPOS>ATOM
      1 C1         -0.0184    1.5028    0.0103 C.3       1 <0>        -0.1194
      2 C2          0.0021   -0.0041    0.0020 C.2       1 <0>        -0.0968
      3 C3          0.0058   -0.6757   -1.1589 C.2       1 <0>        -0.1209
      4 S1          0.0313   -2.3853   -0.6538 S.3       1 <0>         0.1346
      5 C4          0.0364   -2.1544    1.1044 C.ar      1 <0>         0.1304
      6 C5          0.0240   -0.7451    1.2513 C.ar      1 <0>        -0.1742
      7 C6          0.0298   -0.2691    2.5849 C.ar      1 <0>         0.2838
      8 N1          0.0505   -1.1297    3.5791 N.ar      1 <0>        -0.5038
      9 C7          0.0665   -2.4461    3.3773 C.ar      1 <0>         0.4348
     10 N2          0.0520   -2.9530    2.1477 N.ar      1 <0>        -0.4588
     11 C8          0.0900   -3.3572    4.5370 C.2       1 <0>         0.0138
     12 C9          0.0919   -2.9844    5.8461 C.2       1 <0>        -0.1199
     13 C10         0.1176   -4.1697    6.6050 C.2       1 <0>        -0.2231
     14 C11         0.1299   -5.1978    5.7324 C.2       1 <0>        -0.0006
     15 O1          0.1073   -4.7036    4.4850 O.3       1 <0>        -0.1516
     16 Cl1         0.0102    1.4370    2.9050 Cl        1 <0>         0.0131
     17 C12        -0.0087   -0.1176   -2.5586 C.3       1 <0>        -0.0752
     18 H1          1.0042    1.8801    0.0026 H         1 <0>         0.0787
     19 H2         -0.5455    1.8639   -0.8728 H         1 <0>         0.0759
     20 H3         -0.5286    1.8543    0.9071 H         1 <0>         0.0802
     21 H4          0.0773   -1.9745    6.2286 H         1 <0>         0.1639
     22 H5          0.1262   -4.2420    7.6825 H         1 <0>         0.1603
     23 H6          0.1500   -6.2454    5.9942 H         1 <0>         0.2145
     24 H7          1.0153    0.0312   -2.9011 H         1 <0>         0.0887
     25 H8         -0.5161   -0.8168   -3.2233 H         1 <0>         0.0815
     26 H9         -0.5359    0.8364   -2.5639 H         1 <0>         0.0901
@<TRIPOS>BOND
     1    1    2 1
     2    1   18 1
     3    1   19 1
     4    1   20 1
     5    2    6 1
     6    2    3 2
     7    3    4 1
     8    3   17 1
     9    4    5 1
    10    5   10 ar
    11    5    6 ar
    12    6    7 ar
    13    7    8 ar
    14    7   16 1
    15    8    9 ar
    16    9   10 ar
    17    9   11 1
    18   11   15 1
    19   11   12 2
    20   12   13 1
    21   12   21 1
    22   13   14 2
    23   13   22 1
    24   14   15 1
    25   14   23 1
    26   17   24 1
    27   17   25 1
    28   17   26 1
