@<TRIPOS>MOLECULE
ZINC05277166
   52    56     0     0     0
SMALL
USER_CHARGES
N-(2,4-dimethylphenyl)BLAHcarboxamide
@<TRIPOS>ATOM
      1 C1          0.0063   -0.0036   -0.0412 C.3       1 <0>        -0.1139
      2 C2         -0.0153    1.5031   -0.0214 C.ar      1 <0>        -0.0963
      3 C3          1.0074    2.2158   -0.6206 C.ar      1 <0>        -0.1089
      4 C4          0.9906    3.5965   -0.6042 C.ar      1 <0>        -0.1120
      5 C5         -0.0551    4.2695    0.0145 C.ar      1 <0>         0.1372
      6 C6         -1.0805    3.5511    0.6147 C.ar      1 <0>        -0.1082
      7 C7         -1.0603    2.1701    0.5907 C.ar      1 <0>        -0.1047
      8 C8         -2.2171    4.2772    1.2870 C.3       1 <0>        -0.1151
      9 N1         -0.0748    5.6684    0.0332 N.am      1 <0>        -0.6728
     10 C9          1.0795    6.3575    0.1285 C.2       1 <0>         0.5163
     11 O1          2.1399    5.7689    0.1158 O.2       1 <0>        -0.5088
     12 C10         1.0527    7.8593    0.2509 C.3       1 <0>        -0.0983
     13 H1          0.5606    8.2733   -0.6292 H         1 <0>         0.1032
     14 C11         0.2422    8.2372    1.4908 C.3       1 <0>        -0.1115
     15 C12         0.9658    9.4227    2.1991 C.3       1 <0>        -0.0331
     16 H2          0.3768    9.8609    3.0048 H         1 <0>         0.1006
     17 C13         2.2323    8.7649    2.6976 C.ar      1 <0>        -0.0836
     18 C14         2.6201    8.7314    4.0118 C.ar      1 <0>        -0.1113
     19 C15         3.7670    8.0285    4.3522 C.ar      1 <0>        -0.1232
     20 C16         4.5029    7.3674    3.3860 C.ar      1 <0>        -0.1220
     21 C17         4.1190    7.4299    2.0515 C.ar      1 <0>        -0.0913
     22 C18         3.0084    8.1475    1.7256 C.ar      1 <0>        -0.0770
     23 C19         2.5018    8.3782    0.2981 C.3       1 <0>        -0.0081
     24 H3          3.1356    7.9532   -0.4802 H         1 <0>         0.1100
     25 C20         2.4417    9.9238    0.2723 C.3       1 <0>        -0.0704
     26 H4          3.2982   10.2315    0.8723 H         1 <0>         0.0798
     27 C21         1.2148   10.4016    1.0580 C.3       1 <0>        -0.0511
     28 H5          0.3479   10.4106    0.3974 H         1 <0>         0.0895
     29 C22         1.5451   11.8145    1.4617 C.2       1 <0>        -0.1383
     30 C23         2.1026   12.5639    0.4932 C.2       1 <0>        -0.1392
     31 C24         2.3432   12.0114   -0.8542 C.2       1 <0>        -0.1384
     32 C25         2.5218   10.6786   -1.0040 C.2       1 <0>        -0.1333
     33 H6          0.5331   -0.3710    0.8394 H         1 <0>         0.0697
     34 H7         -1.0160   -0.3817   -0.0371 H         1 <0>         0.0656
     35 H8          0.5174   -0.3479   -0.9403 H         1 <0>         0.0661
     36 H9          1.8202    1.6919   -1.1015 H         1 <0>         0.1240
     37 H10         1.7899    4.1524   -1.0717 H         1 <0>         0.1389
     38 H11        -1.8595    1.6107    1.0541 H         1 <0>         0.1246
     39 H12        -3.0124    4.4564    0.5635 H         1 <0>         0.0710
     40 H13        -2.6016    3.6704    2.1068 H         1 <0>         0.0712
     41 H14        -1.8593    5.2301    1.6771 H         1 <0>         0.0629
     42 H15        -0.9194    6.1423   -0.0224 H         1 <0>         0.4088
     43 H16        -0.7617    8.5422    1.1955 H         1 <0>         0.0803
     44 H17         0.1839    7.3839    2.1666 H         1 <0>         0.0722
     45 H18         2.0459    9.2441    4.7693 H         1 <0>         0.1224
     46 H19         4.0881    7.9971    5.3829 H         1 <0>         0.1190
     47 H20         5.3782    6.8016    3.6688 H         1 <0>         0.1204
     48 H21         4.6897    6.9204    1.2892 H         1 <0>         0.1252
     49 H22         1.3491   12.1970    2.4525 H         1 <0>         0.1276
     50 H23         2.3782   13.5864    0.7051 H         1 <0>         0.1146
     51 H24         2.3768   12.6654   -1.7131 H         1 <0>         0.1192
     52 H25         2.7176   10.2164   -1.9602 H         1 <0>         0.1305
@<TRIPOS>BOND
     1    1    2 1
     2    1   33 1
     3    1   34 1
     4    1   35 1
     5    2    7 ar
     6    2    3 ar
     7    3    4 ar
     8    3   36 1
     9    4    5 ar
    10    4   37 1
    11    5    6 ar
    12    5    9 1
    13    6    7 ar
    14    6    8 1
    15    7   38 1
    16    8   39 1
    17    8   40 1
    18    8   41 1
    19    9   10 am
    20    9   42 1
    21   10   11 2
    22   10   12 1
    23   12   13 1
    24   12   23 1
    25   12   14 1
    26   14   15 1
    27   14   43 1
    28   14   44 1
    29   15   16 1
    30   15   27 1
    31   15   17 1
    32   17   22 ar
    33   17   18 ar
    34   18   19 ar
    35   18   45 1
    36   19   20 ar
    37   19   46 1
    38   20   21 ar
    39   20   47 1
    40   21   22 ar
    41   21   48 1
    42   22   23 1
    43   23   24 1
    44   23   25 1
    45   25   26 1
    46   25   32 1
    47   25   27 1
    48   27   28 1
    49   27   29 1
    50   29   30 2
    51   29   49 1
    52   30   31 1
    53   30   50 1
    54   31   32 2
    55   31   51 1
    56   32   52 1
