@<TRIPOS>MOLECULE
ZINC39540473
   20    20     0     0     0
SMALL
USER_CHARGES

@<TRIPOS>ATOM
      1 C1         -0.0187    1.5258    0.0104 C.3       1 <0>        -0.1717
      2 C2          0.0021   -0.0041    0.0020 C.3       1 <0>         0.1002
      3 N1          0.6878   -0.4765   -1.2033 N.pl3     1 <0>        -0.4356
      4 C3          0.0929   -0.7389   -2.4089 C.2       1 <0>        -0.0078
      5 C4          1.0518   -1.1531   -3.2689 C.2       1 <0>        -0.1382
      6 C5          2.2781   -1.1449   -2.5675 C.2       1 <0>        -0.1542
      7 C6          2.0245   -0.7222   -1.3121 C.2       1 <0>         0.0490
      8 I1          4.1501   -1.6827   -3.3392 I         1 <0>        -0.0132
      9 S1          0.8150   -1.6168   -4.9522 S.3       1 <0>        -0.0825
     10 C7         -0.9666   -1.4041   -5.2195 C.3       1 <0>        -0.1468
     11 H1          1.0039    1.9031    0.0027 H         1 <0>         0.0649
     12 H2         -0.5459    1.8868   -0.8726 H         1 <0>         0.0636
     13 H3         -0.5289    1.8773    0.9072 H         1 <0>         0.0783
     14 H4          0.5293   -0.3651    0.8851 H         1 <0>         0.0948
     15 H5         -1.0205   -0.3814    0.0098 H         1 <0>         0.0935
     16 H6         -0.9582   -0.6338   -2.6338 H         1 <0>         0.1667
     17 H7          2.7553   -0.6016   -0.5261 H         1 <0>         0.1725
     18 H8         -1.2397   -0.3647   -5.0375 H         1 <0>         0.0792
     19 H9         -1.2141   -1.6703   -6.2471 H         1 <0>         0.1080
     20 H10        -1.5163   -2.0496   -4.5344 H         1 <0>         0.0793
@<TRIPOS>BOND
     1    1    2 1
     2    1   11 1
     3    1   12 1
     4    1   13 1
     5    2    3 1
     6    2   14 1
     7    2   15 1
     8    3    7 1
     9    3    4 1
    10    4    5 2
    11    4   16 1
    12    5    6 1
    13    5    9 1
    14    6    7 2
    15    6    8 1
    16    7   17 1
    17    9   10 1
    18   10   18 1
    19   10   19 1
    20   10   20 1
