@<TRIPOS>MOLECULE
ZINC39462437
   57    61     0     0     0
SMALL
USER_CHARGES

@<TRIPOS>ATOM
      1 C1         -0.0184    1.5028    0.0103 C.3       1 <0>        -0.1076
      2 C2          0.0021   -0.0041    0.0020 C.2       1 <0>        -0.0955
      3 C3         -0.0950   -0.6776   -1.1539 C.2       1 <0>        -0.1288
      4 S1         -0.0244   -2.3857   -0.6478 S.3       1 <0>         0.1111
      5 C4          0.1336   -2.1487    1.1024 C.ar      1 <0>         0.1335
      6 C5          0.1331   -0.7438    1.2448 C.ar      1 <0>        -0.1675
      7 C6          0.2555   -0.2663    2.5794 C.ar      1 <0>         0.1898
      8 N1          0.3634   -1.1388    3.5695 N.ar      1 <0>        -0.5337
      9 C7          0.3616   -2.4428    3.3609 C.ar      1 <0>         0.3617
     10 N2          0.2411   -2.9457    2.1473 N.ar      1 <0>        -0.4678
     11 C8          0.4889   -3.3772    4.5364 C.3       1 <0>         0.1270
     12 N3         -0.8482   -3.7003    5.0521 N.3       1 <0>        -0.5299
     13 C9         -1.4925   -2.5107    5.6276 C.3       1 <0>         0.0176
     14 C10        -2.9026   -2.8778    6.0975 C.3       1 <0>         0.0642
     15 O1         -2.8221   -3.9561    7.0335 O.3       1 <0>        -0.3837
     16 C11        -2.2005   -5.1311    6.5060 C.3       1 <0>         0.0635
     17 C12        -0.7833   -4.7869    6.0402 C.3       1 <0>         0.0203
     18 S2          0.2638    1.4643    2.9105 S.3       1 <0>         0.0821
     19 C13         0.4365    1.5654    4.7134 C.3       1 <0>        -0.0887
     20 C14         0.4575    3.0118    5.1357 C.2       1 <0>         0.4661
     21 N4          0.3499    3.9316    4.2073 N.2       1 <0>        -0.6020
     22 C15         0.3579    5.2405    4.4804 C.2       1 <0>         0.5583
     23 O2          0.2554    6.0695    3.5922 O.2       1 <0>        -0.4445
     24 C16         0.4964    5.6553    5.9129 C.2       1 <0>        -0.3186
     25 C17         0.5283    6.8969    6.4197 C.2       1 <0>         0.0734
     26 C18         0.6767    7.0419    7.9171 C.3       1 <0>        -0.0718
     27 H1          1.5963    7.5702    8.1689 H         1 <0>         0.1618
     28 S3          0.7578    5.2856    8.4556 S.3       1 <0>         0.0211
     29 C19         0.6089    4.5246    6.8589 C.2       1 <0>         0.2846
     30 N5          0.5782    3.2870    6.4249 N.2       1 <0>        -0.5331
     31 C20        -0.5394    7.7457    8.5226 C.3       1 <0>        -0.1329
     32 C21         0.4204    8.1059    5.5266 C.3       1 <0>        -0.1546
     33 C22        -0.2321   -0.1227   -2.5483 C.3       1 <0>        -0.0733
     34 H2          1.0042    1.8799    0.0272 H         1 <0>         0.0816
     35 H3         -0.5242    1.8642   -0.8850 H         1 <0>         0.0796
     36 H4         -0.5498    1.8541    0.8947 H         1 <0>         0.0795
     37 H5          0.9873   -4.2934    4.2199 H         1 <0>         0.1073
     38 H6          1.0745   -2.8972    5.3204 H         1 <0>         0.0694
     39 H7         -0.9075   -2.1543    6.4755 H         1 <0>         0.0501
     40 H8         -1.5530   -1.7279    4.8715 H         1 <0>         0.0847
     41 H9         -3.3630   -2.0137    6.5765 H         1 <0>         0.0987
     42 H10        -3.5036   -3.1832    5.2411 H         1 <0>         0.0583
     43 H11        -2.1533   -5.8968    7.2804 H         1 <0>         0.1016
     44 H12        -2.7812   -5.5022    5.6614 H         1 <0>         0.0611
     45 H13        -0.3262   -5.6657    5.5853 H         1 <0>         0.0917
     46 H14        -0.1871   -4.4668    6.8947 H         1 <0>         0.0484
     47 H15        -0.4050    1.0605    5.1879 H         1 <0>         0.1328
     48 H16         1.3666    1.0848    5.0168 H         1 <0>         0.1334
     49 H17        -1.4370    7.1633    8.3149 H         1 <0>         0.0759
     50 H18        -0.4069    7.8372    9.6006 H         1 <0>         0.0879
     51 H19        -0.6407    8.7382    8.0835 H         1 <0>         0.0899
     52 H20         0.3210    7.7842    4.4899 H         1 <0>         0.1149
     53 H21        -0.4543    8.6908    5.8110 H         1 <0>         0.0993
     54 H22         1.3165    8.7173    5.6329 H         1 <0>         0.0988
     55 H23         0.7581    0.0260   -2.9791 H         1 <0>         0.0856
     56 H24        -0.7950   -0.8237   -3.1646 H         1 <0>         0.0790
     57 H25        -0.7585    0.8310   -2.5097 H         1 <0>         0.0879
@<TRIPOS>BOND
     1    1    2 1
     2    1   34 1
     3    1   35 1
     4    1   36 1
     5    2    6 1
     6    2    3 2
     7    3    4 1
     8    3   33 1
     9    4    5 1
    10    5   10 ar
    11    5    6 ar
    12    6    7 ar
    13    7    8 ar
    14    7   18 1
    15    8    9 ar
    16    9   10 ar
    17    9   11 1
    18   11   12 1
    19   11   37 1
    20   11   38 1
    21   12   17 1
    22   12   13 1
    23   13   14 1
    24   13   39 1
    25   13   40 1
    26   14   15 1
    27   14   41 1
    28   14   42 1
    29   15   16 1
    30   16   17 1
    31   16   43 1
    32   16   44 1
    33   17   45 1
    34   17   46 1
    35   18   19 1
    36   19   20 1
    37   19   47 1
    38   19   48 1
    39   20   30 1
    40   20   21 2
    41   21   22 1
    42   22   23 2
    43   22   24 1
    44   24   29 1
    45   24   25 2
    46   25   26 1
    47   25   32 1
    48   26   27 1
    49   26   28 1
    50   26   31 1
    51   28   29 1
    52   29   30 2
    53   31   49 1
    54   31   50 1
    55   31   51 1
    56   32   52 1
    57   32   53 1
    58   32   54 1
    59   33   55 1
    60   33   56 1
    61   33   57 1
