@<TRIPOS>MOLECULE
ZINC20881581
   65    68     0     0     0
SMALL
USER_CHARGES
(4R,7S)-7-(4-tert-butylphenyl)-4-(4-propoxyphenyl)-1,3,4,6,7,8-hexahydroquinoline-2,5-dione
@<TRIPOS>ATOM
      1 C1         12.5028   -2.6413   -6.4081 C.3       1 <0>        -0.1522
      2 C2         11.6355   -2.1349   -7.5623 C.3       1 <0>        -0.1249
      3 C3         10.2030   -2.6420   -7.3845 C.3       1 <0>         0.0569
      4 O1          9.3930   -2.1691   -8.4625 O.3       1 <0>        -0.3154
      5 C4          8.0834   -2.5322   -8.4557 C.ar      1 <0>         0.1312
      6 C5          7.2395   -2.1084   -9.4720 C.ar      1 <0>        -0.1497
      7 C6          5.9088   -2.4793   -9.4630 C.ar      1 <0>        -0.0638
      8 C7          5.4179   -3.2723   -8.4423 C.ar      1 <0>        -0.1161
      9 C8          6.2556   -3.6913   -7.4252 C.ar      1 <0>        -0.0830
     10 C9          7.5884   -3.3278   -7.4327 C.ar      1 <0>        -0.2055
     11 C10         3.9658   -3.6754   -8.4350 C.3       1 <0>         0.0120
     12 H1          3.4681   -3.2341   -9.3111 H         1 <0>         0.1113
     13 C11         3.8592   -5.2007   -8.4780 C.3       1 <0>        -0.1380
     14 C12         4.2901   -5.7629   -7.1478 C.2       1 <0>         0.5287
     15 O2          4.8621   -6.8309   -7.0990 O.2       1 <0>        -0.5072
     16 N1          4.0411   -5.0828   -6.0152 N.am      1 <0>        -0.6744
     17 C13         3.3722   -3.8855   -6.0393 C.2       1 <0>         0.2231
     18 C14         3.3066   -3.1618   -7.1766 C.2       1 <0>        -0.2731
     19 C15         2.6327   -1.9300   -7.2219 C.2       1 <0>         0.4071
     20 O3          2.5854   -1.3123   -8.2670 O.2       1 <0>        -0.4650
     21 C16         1.9688   -1.3633   -5.9956 C.3       1 <0>        -0.1606
     22 C17         2.7073   -1.8687   -4.7518 C.3       1 <0>        -0.0344
     23 H2          3.7375   -1.4837   -4.7330 H         1 <0>         0.0921
     24 C18         2.7106   -3.3989   -4.7740 C.3       1 <0>        -0.0926
     25 C19         2.0018   -1.3823   -3.5121 C.ar      1 <0>        -0.0883
     26 C20         2.6713   -0.5831   -2.6044 C.ar      1 <0>        -0.1079
     27 C21         2.0241   -0.1370   -1.4673 C.ar      1 <0>        -0.1125
     28 C22         0.7074   -0.4901   -1.2379 C.ar      1 <0>        -0.0658
     29 C23         0.0396   -1.2936   -2.1429 C.ar      1 <0>        -0.1183
     30 C24         0.6850   -1.7351   -3.2829 C.ar      1 <0>        -0.1109
     31 C25         0.0021   -0.0041    0.0020 C.3       1 <0>        -0.0311
     32 C26        -0.0187    1.5258    0.0104 C.3       1 <0>        -0.1413
     33 C27         0.7421   -0.5109    1.2415 C.3       1 <0>        -0.1408
     34 C28        -1.4333   -0.5336    0.0129 C.3       1 <0>        -0.1472
     35 H3         13.5327   -2.2767   -6.5360 H         1 <0>         0.0665
     36 H4         12.5012   -3.7413   -6.4035 H         1 <0>         0.0583
     37 H5         12.0981   -2.2700   -5.4550 H         1 <0>         0.0579
     38 H6         11.6371   -1.0349   -7.5669 H         1 <0>         0.0746
     39 H7         12.0402   -2.5062   -8.5154 H         1 <0>         0.0748
     40 H8         10.2014   -3.7420   -7.3798 H         1 <0>         0.0623
     41 H9          9.7982   -2.2707   -6.4315 H         1 <0>         0.0617
     42 H10         7.6226   -1.4893  -10.2697 H         1 <0>         0.1320
     43 H11         5.2515   -2.1499  -10.2541 H         1 <0>         0.1327
     44 H12         5.8686   -4.3067   -6.6265 H         1 <0>         0.1217
     45 H13         8.2433   -3.6591   -6.6404 H         1 <0>         0.1252
     46 H14         2.8177   -5.4898   -8.6820 H         1 <0>         0.1111
     47 H15         4.5107   -5.5915   -9.2734 H         1 <0>         0.1155
     48 H16         4.3754   -5.4849   -5.0474 H         1 <0>         0.4390
     49 H17         2.0097   -0.2646   -6.0311 H         1 <0>         0.1009
     50 H18         0.9190   -1.6902   -5.9628 H         1 <0>         0.1043
     51 H19         1.6747   -3.7671   -4.7369 H         1 <0>         0.1060
     52 H20         3.2651   -3.7758   -3.9020 H         1 <0>         0.0949
     53 H21         3.7000   -0.3075   -2.7835 H         1 <0>         0.1217
     54 H22         2.5473    0.4872   -0.7580 H         1 <0>         0.1213
     55 H23        -0.9877   -1.5731   -1.9615 H         1 <0>         0.1271
     56 H24         0.1618   -2.3592   -3.9922 H         1 <0>         0.1212
     57 H25        -0.5335    1.8805    0.9155 H         1 <0>         0.0600
     58 H26        -0.5508    1.8901   -0.8807 H         1 <0>         0.0573
     59 H27         1.0133    1.9066    0.0025 H         1 <0>         0.0574
     60 H28         0.2272   -0.1561    2.1465 H         1 <0>         0.0600
     61 H29         1.7741   -0.1301    1.2336 H         1 <0>         0.0573
     62 H30         0.7570   -1.6108    1.2355 H         1 <0>         0.0567
     63 H31        -1.9481   -0.1788    0.9180 H         1 <0>         0.0597
     64 H32        -1.4184   -1.6335    0.0068 H         1 <0>         0.0591
     65 H33        -1.9653   -0.1691   -0.8782 H         1 <0>         0.0595
@<TRIPOS>BOND
     1    1    2 1
     2    1   35 1
     3    1   36 1
     4    1   37 1
     5    2    3 1
     6    2   38 1
     7    2   39 1
     8    3    4 1
     9    3   40 1
    10    3   41 1
    11    4    5 1
    12    5   10 ar
    13    5    6 ar
    14    6    7 ar
    15    6   42 1
    16    7    8 ar
    17    7   43 1
    18    8    9 ar
    19    8   11 1
    20    9   10 ar
    21    9   44 1
    22   10   45 1
    23   11   12 1
    24   11   18 1
    25   11   13 1
    26   13   14 1
    27   13   46 1
    28   13   47 1
    29   14   15 2
    30   14   16 am
    31   16   17 1
    32   16   48 1
    33   17   24 1
    34   17   18 2
    35   18   19 1
    36   19   20 2
    37   19   21 1
    38   21   22 1
    39   21   49 1
    40   21   50 1
    41   22   23 1
    42   22   24 1
    43   22   25 1
    44   24   51 1
    45   24   52 1
    46   25   30 ar
    47   25   26 ar
    48   26   27 ar
    49   26   53 1
    50   27   28 ar
    51   27   54 1
    52   28   29 ar
    53   28   31 1
    54   29   30 ar
    55   29   55 1
    56   30   56 1
    57   31   32 1
    58   31   33 1
    59   31   34 1
    60   32   57 1
    61   32   58 1
    62   32   59 1
    63   33   60 1
    64   33   61 1
    65   33   62 1
    66   34   63 1
    67   34   64 1
    68   34   65 1
