@<TRIPOS>MOLECULE
ZINC09910310
   36    39     0     0     0
SMALL
USER_CHARGES
N-(2-chlorophenyl)phenazine-1-carboxamide
@<TRIPOS>ATOM
      1 C1          1.1577    2.0935    0.0434 C.ar      1 <0>        -0.0894
      2 C2          2.3907    1.4397    0.0176 C.ar      1 <0>        -0.0921
      3 C3          2.4800    0.0850    0.0027 C.ar      1 <0>        -0.0811
      4 C4          1.3019   -0.6908    0.0133 C.ar      1 <0>         0.1067
      5 C5          0.0049   -0.0038    0.0403 C.ar      1 <0>         0.1035
      6 C6         -0.0136    1.4079    0.0548 C.ar      1 <0>        -0.0876
      7 N1         -1.1234   -0.7049    0.0504 N.ar      1 <0>        -0.4061
      8 C7         -1.0700   -2.0323    0.0358 C.ar      1 <0>         0.1021
      9 C8         -2.2485   -2.8106    0.0453 C.ar      1 <0>        -0.0501
     10 C9         -2.1805   -4.1658    0.0297 C.ar      1 <0>        -0.1092
     11 C10        -0.9723   -4.8546    0.0039 C.ar      1 <0>        -0.0449
     12 C11         0.2389   -4.1824   -0.0072 C.ar      1 <0>        -0.1051
     13 C12         0.2274   -2.7165    0.0088 C.ar      1 <0>         0.1351
     14 N2          1.3543   -2.0198   -0.0013 N.ar      1 <0>        -0.3780
     15 C13         1.5119   -4.9251   -0.0340 C.2       1 <0>         0.5596
     16 O1          2.5678   -4.3218   -0.0431 O.2       1 <0>        -0.4749
     17 N3          1.5056   -6.2728   -0.0484 N.am      1 <0>        -0.6709
     18 C14         2.7085   -6.9766   -0.1687 C.ar      1 <0>         0.1584
     19 C15         3.8666   -6.4804    0.4155 C.ar      1 <0>        -0.1095
     20 C16         5.0518   -7.1798    0.2985 C.ar      1 <0>        -0.0947
     21 C17         5.0890   -8.3681   -0.4079 C.ar      1 <0>        -0.1212
     22 C18         3.9394   -8.8632   -0.9952 C.ar      1 <0>        -0.0920
     23 C19         2.7487   -8.1710   -0.8781 C.ar      1 <0>        -0.0644
     24 Cl1         1.3057   -8.7924   -1.6166 Cl        1 <0>        -0.0659
     25 H1          1.1352    3.1732    0.0546 H         1 <0>         0.1391
     26 H2          3.2973    2.0266    0.0093 H         1 <0>         0.1393
     27 H3          3.4469   -0.3956   -0.0176 H         1 <0>         0.1459
     28 H4         -0.9539    1.9389    0.0703 H         1 <0>         0.1443
     29 H5         -3.2120   -2.3231    0.0656 H         1 <0>         0.1495
     30 H6         -3.1004   -4.7316    0.0375 H         1 <0>         0.1466
     31 H7         -0.9787   -5.9345   -0.0080 H         1 <0>         0.1401
     32 H8          0.6670   -6.7547    0.0247 H         1 <0>         0.4102
     33 H9          3.8397   -5.5502    0.9636 H         1 <0>         0.1498
     34 H10         5.9518   -6.7958    0.7557 H         1 <0>         0.1340
     35 H11         6.0182   -8.9105   -0.5014 H         1 <0>         0.1346
     36 H12         3.9718   -9.7915   -1.5462 H         1 <0>         0.1382
@<TRIPOS>BOND
     1    1    6 ar
     2    1    2 ar
     3    1   25 1
     4    2    3 ar
     5    2   26 1
     6    3    4 ar
     7    3   27 1
     8    4   14 ar
     9    4    5 ar
    10    5    6 ar
    11    5    7 ar
    12    6   28 1
    13    7    8 ar
    14    8   13 ar
    15    8    9 ar
    16    9   10 ar
    17    9   29 1
    18   10   11 ar
    19   10   30 1
    20   11   12 ar
    21   11   31 1
    22   12   13 ar
    23   12   15 1
    24   13   14 ar
    25   15   16 2
    26   15   17 am
    27   17   18 1
    28   17   32 1
    29   18   23 ar
    30   18   19 ar
    31   19   20 ar
    32   19   33 1
    33   20   21 ar
    34   20   34 1
    35   21   22 ar
    36   21   35 1
    37   22   23 ar
    38   22   36 1
    39   23   24 1
