@<TRIPOS>MOLECULE
ZINC33724043
   57    61     0     0     0
SMALL
USER_CHARGES
(5E)-3-[(3S)-1,1-dioxothiolan-3-yl]-5-[[7-methyl-4-oxo-2-(1-piperidyl)pyrido[1,2-a]pyrimidin-3-yl]methylene]-2-thioxo-thiazolidin-4-one
@<TRIPOS>ATOM
      1 C1         -0.1474   -0.8315   -8.1048 C.3       1 <0>        -0.1124
      2 C2          0.0924   -2.2058   -7.5349 C.2       1 <0>        -0.1306
      3 C3          0.1779   -3.3128   -8.3903 C.2       1 <0>        -0.0129
      4 C4          0.3946   -4.5525   -7.8661 C.2       1 <0>        -0.1407
      5 C5          0.5298   -4.7031   -6.4742 C.2       1 <0>         0.4268
      6 N1          0.7424   -5.9193   -5.9709 N.2       1 <0>        -0.5731
      7 C6          0.8813   -6.1182   -4.6682 C.2       1 <0>         0.4677
      8 C7          0.7932   -5.0191   -3.7816 C.2       1 <0>        -0.3535
      9 C8          0.5682   -3.7326   -4.3270 C.2       1 <0>         0.5383
     10 O1          0.4900   -2.7567   -3.6008 O.2       1 <0>        -0.5180
     11 N2          0.4411   -3.6045   -5.6653 N.am      1 <0>        -0.4260
     12 C9          0.2242   -2.3690   -6.1994 C.2       1 <0>         0.1015
     13 C10         0.9325   -5.2006   -2.3858 C.2       1 <0>         0.1698
     14 C11         0.1011   -6.0561   -1.7226 C.2       1 <0>        -0.2541
     15 C12        -1.0424   -6.7590   -2.1985 C.2       1 <0>         0.5521
     16 O2         -1.4119   -6.6448   -3.3540 O.2       1 <0>        -0.4521
     17 N3         -1.6912   -7.5390   -1.3516 N.am      1 <0>        -0.5151
     18 C13        -1.2841   -7.6617   -0.0684 C.2       1 <0>         0.2732
     19 S1         -1.9685   -8.5992    1.1900 S.2       1 <0>        -0.3335
     20 S2          0.1512   -6.5991   -0.0203 S.3       1 <0>         0.0716
     21 C14        -2.8717   -8.2766   -1.8083 C.3       1 <0>         0.1203
     22 H1         -3.0115   -8.0329   -2.8718 H         1 <0>         0.1382
     23 C15        -2.6298   -9.7852   -1.6350 C.3       1 <0>        -0.1606
     24 C16        -3.9886  -10.5184   -1.8229 C.3       1 <0>        -0.5715
     25 S3         -5.1168   -9.3733   -0.9224 S.o2      1 <0>         2.3964
     26 O3         -6.2917   -9.1775   -1.6974 O.2       1 <0>        -0.9326
     27 O4         -5.2321   -9.8040    0.4268 O.2       1 <0>        -0.9074
     28 C17        -4.1020   -7.8405   -0.9766 C.3       1 <0>        -0.6155
     29 N4          1.1056   -7.3869   -4.1801 N.pl3     1 <0>        -0.4685
     30 C18         2.4300   -7.4831   -3.5531 C.3       1 <0>         0.0561
     31 C19         2.5865   -8.8566   -2.8966 C.3       1 <0>        -0.1183
     32 C20         2.4241   -9.9465   -3.9597 C.3       1 <0>        -0.1250
     33 C21         1.0563   -9.7942   -4.6308 C.3       1 <0>        -0.1207
     34 C22         0.9441   -8.3935   -5.2371 C.3       1 <0>         0.0638
     35 H2         -0.2274   -0.8975   -9.1999 H         1 <0>         0.0806
     36 H3          0.6916   -0.1722   -7.8375 H         1 <0>         0.0812
     37 H4         -1.0814   -0.4217   -7.6930 H         1 <0>         0.0810
     38 H5          0.0732   -3.1845   -9.4575 H         1 <0>         0.1589
     39 H6          0.4624   -5.4130   -8.5152 H         1 <0>         0.1714
     40 H7          0.1566   -1.5105   -5.5477 H         1 <0>         0.1858
     41 H8          1.7108   -4.6523   -1.8348 H         1 <0>         0.1524
     42 H9         -1.9064  -10.1295   -2.3888 H         1 <0>         0.1045
     43 H10        -2.2309   -9.9794   -0.6284 H         1 <0>         0.1204
     44 H11        -4.2121  -10.6069   -2.8963 H         1 <0>         0.1438
     45 H12        -3.9284  -11.5222   -1.3770 H         1 <0>         0.1537
     46 H13        -3.7730   -7.5127    0.0205 H         1 <0>         0.1585
     47 H14        -4.6129   -7.0099   -1.4855 H         1 <0>         0.1488
     48 H15         3.2086   -7.3525   -4.3190 H         1 <0>         0.0573
     49 H16         2.5319   -6.6983   -2.7891 H         1 <0>         0.0847
     50 H17         3.5843   -8.9331   -2.4399 H         1 <0>         0.0814
     51 H18         1.8174   -8.9817   -2.1202 H         1 <0>         0.0724
     52 H19         3.2188   -9.8448   -4.7134 H         1 <0>         0.0651
     53 H20         2.4942  -10.9359   -3.4842 H         1 <0>         0.0714
     54 H21         0.9512  -10.5487   -5.4244 H         1 <0>         0.0772
     55 H22         0.2628   -9.9363   -3.8824 H         1 <0>         0.0668
     56 H23        -0.0433   -8.2761   -5.7075 H         1 <0>         0.0890
     57 H24         1.7297   -8.2585   -5.9951 H         1 <0>         0.0599
@<TRIPOS>BOND
     1    1    2 1
     2    1   35 1
     3    1   36 1
     4    1   37 1
     5    2   12 2
     6    2    3 1
     7    3    4 2
     8    3   38 1
     9    4    5 1
    10    4   39 1
    11    5   11 1
    12    5    6 2
    13    6    7 1
    14    7    8 2
    15    7   29 1
    16    8    9 1
    17    8   13 1
    18    9   10 2
    19    9   11 am
    20   11   12 1
    21   12   40 1
    22   13   14 2
    23   13   41 1
    24   14   20 1
    25   14   15 1
    26   15   16 2
    27   15   17 am
    28   17   18 1
    29   17   21 1
    30   18   19 2
    31   18   20 1
    32   21   22 1
    33   21   28 1
    34   21   23 1
    35   23   24 1
    36   23   42 1
    37   23   43 1
    38   24   25 1
    39   24   44 1
    40   24   45 1
    41   25   26 2
    42   25   27 2
    43   25   28 1
    44   28   46 1
    45   28   47 1
    46   29   34 1
    47   29   30 1
    48   30   31 1
    49   30   48 1
    50   30   49 1
    51   31   32 1
    52   31   50 1
    53   31   51 1
    54   32   33 1
    55   32   52 1
    56   32   53 1
    57   33   34 1
    58   33   54 1
    59   33   55 1
    60   34   56 1
    61   34   57 1
