@<TRIPOS>MOLECULE
ZINC20557452
   45    49     0     0     0
SMALL
USER_CHARGES
N-(1,3-benzodioxol-5-ylmethyl)-6,7,8,9-tetrahydro-1H-thiopyrano[4,5-b]benzothiophene-3-carboxamide
@<TRIPOS>ATOM
      1 C1          2.3791    1.4180   -0.0112 C.ar      1 <0>        -0.0867
      2 C2          2.4055    0.0355   -0.0200 C.ar      1 <0>        -0.1010
      3 C3          1.2199   -0.6804   -0.0132 C.ar      1 <0>         0.0412
      4 C4          0.0021   -0.0041    0.0020 C.ar      1 <0>         0.0314
      5 C5         -0.0167    1.3808    0.0096 C.ar      1 <0>        -0.0812
      6 C6          1.1709    2.0891    0.0021 C.ar      1 <0>        -0.1003
      7 C7          1.1478    3.5959    0.0104 C.3       1 <0>         0.1677
      8 N1          1.1535    4.0767    1.3942 N.am      1 <0>        -0.7275
      9 C8          1.1355    5.4003    1.6478 C.2       1 <0>         0.5798
     10 O1          1.1146    6.1962    0.7269 O.2       1 <0>        -0.5349
     11 C9          1.1412    5.8813    3.0319 C.2       1 <0>        -0.1798
     12 C10         1.1231    7.2171    3.2894 C.2       1 <0>         0.0202
     13 C11         1.1729    7.6903    4.6071 C.2       1 <0>        -0.1696
     14 C12         1.5922    7.0247    5.7517 C.2       1 <0>        -0.0784
     15 C13         1.5300    7.7236    6.9603 C.2       1 <0>        -0.1167
     16 C14         1.0744    9.0088    6.9266 C.2       1 <0>        -0.1322
     17 S1          0.7090    9.2942    5.2148 S.3       1 <0>         0.1142
     18 C15         0.9211    9.9509    8.0777 C.3       1 <0>        -0.0467
     19 C16         1.0092    9.1397    9.3793 C.3       1 <0>        -0.1147
     20 C17         2.2211    8.2074    9.2968 C.3       1 <0>        -0.1217
     21 C18         1.9566    7.0928    8.2839 C.3       1 <0>        -0.0636
     22 C19         2.1037    5.5875    5.6678 C.3       1 <0>        -0.0483
     23 S2          1.1642    4.7297    4.3673 S.3       1 <0>        -0.0896
     24 O2         -1.0072   -0.9231    0.0059 O.3       1 <0>        -0.3091
     25 C20        -0.4032   -2.1592   -0.4191 C.3       1 <0>         0.2084
     26 O3          0.9731   -2.0229   -0.0187 O.3       1 <0>        -0.3035
     27 H1          3.3046    1.9747   -0.0165 H         1 <0>         0.1417
     28 H2          3.3510   -0.4862   -0.0318 H         1 <0>         0.1395
     29 H3         -0.9594    1.9078    0.0170 H         1 <0>         0.1380
     30 H4          2.0352    3.9791   -0.5146 H         1 <0>         0.0842
     31 H5          0.2392    3.9515   -0.4976 H         1 <0>         0.0814
     32 H6          1.1725    3.3575    2.2263 H         1 <0>         0.4273
     33 H7          1.0689    7.9366    2.4591 H         1 <0>         0.1565
     34 H8          1.7240   10.7021    8.0461 H         1 <0>         0.0893
     35 H9         -0.0547   10.4543    8.0121 H         1 <0>         0.0868
     36 H10         1.1232    9.8255   10.2317 H         1 <0>         0.0772
     37 H11         0.0907    8.5477    9.5053 H         1 <0>         0.0705
     38 H12         3.1044    8.7815    8.9803 H         1 <0>         0.0675
     39 H13         2.4084    7.7613   10.2847 H         1 <0>         0.0727
     40 H14         1.1547    6.4362    8.6524 H         1 <0>         0.0793
     41 H15         2.8722    6.5028    8.1306 H         1 <0>         0.0772
     42 H16         3.1755    5.5936    5.4202 H         1 <0>         0.1024
     43 H17         1.9540    5.0879    6.6363 H         1 <0>         0.1275
     44 H18        -0.9014   -3.0021    0.0822 H         1 <0>         0.1357
     45 H19        -0.5116   -2.2647   -1.5087 H         1 <0>         0.0877
@<TRIPOS>BOND
     1    1    6 ar
     2    1    2 ar
     3    1   27 1
     4    2    3 ar
     5    2   28 1
     6    3   26 1
     7    3    4 ar
     8    4    5 ar
     9    4   24 1
    10    5    6 ar
    11    5   29 1
    12    6    7 1
    13    7    8 1
    14    7   30 1
    15    7   31 1
    16    8    9 am
    17    8   32 1
    18    9   10 2
    19    9   11 1
    20   11   23 1
    21   11   12 2
    22   12   13 1
    23   12   33 1
    24   13   17 1
    25   13   14 2
    26   14   15 1
    27   14   22 1
    28   15   21 1
    29   15   16 2
    30   16   17 1
    31   16   18 1
    32   18   19 1
    33   18   34 1
    34   18   35 1
    35   19   20 1
    36   19   36 1
    37   19   37 1
    38   20   21 1
    39   20   38 1
    40   20   39 1
    41   21   40 1
    42   21   41 1
    43   22   23 1
    44   22   42 1
    45   22   43 1
    46   24   25 1
    47   25   26 1
    48   25   44 1
    49   25   45 1
