@<TRIPOS>MOLECULE
ZINC15356938
   51    54     0     0     0
SMALL
USER_CHARGES
2-ethyl-N-[[2-(p-tolylmethoxy)-1-naphthyl]methyl]tetrazol-5-amine
@<TRIPOS>ATOM
      1 C1         -5.2381    9.8126    4.0526 C.3       1 <0>        -0.1711
      2 C2         -5.6314    8.3775    3.6966 C.3       1 <0>         0.1357
      3 N1         -4.7201    7.8612    2.6723 N.pl3     1 <0>        -0.2031
      4 N2         -3.5133    7.1782    2.8961 N.2       1 <0>        -0.3589
      5 C3         -3.0271    6.9031    1.7036 C.2       1 <0>         0.4494
      6 N3         -3.8789    7.3918    0.8010 N.2       1 <0>        -0.3410
      7 N4         -4.8741    7.9484    1.3951 N.2       1 <0>         0.0127
      8 N5         -1.8349    6.2283    1.4334 N.pl3     1 <0>        -0.6838
      9 C4         -1.4231    5.9952    0.0470 C.3       1 <0>         0.1945
     10 C5         -0.1117    5.2530    0.0305 C.ar      1 <0>        -0.1510
     11 C6         -0.0951    3.8486    0.0227 C.ar      1 <0>         0.0049
     12 C7         -1.2883    3.1054    0.0301 C.ar      1 <0>        -0.1189
     13 C8         -1.2348    1.7456    0.0174 C.ar      1 <0>        -0.0980
     14 C9         -0.0126    1.0758    0.0080 C.ar      1 <0>        -0.1282
     15 C10         1.1627    1.7621    0.0004 C.ar      1 <0>        -0.0912
     16 C11         1.1478    3.1673    0.0077 C.ar      1 <0>        -0.0874
     17 C12         2.3422    3.9088    0.0007 C.ar      1 <0>        -0.0489
     18 C13         2.2925    5.2677    0.0085 C.ar      1 <0>        -0.1979
     19 C14         1.0674    5.9421    0.0234 C.ar      1 <0>         0.1615
     20 O1          1.0500    7.3008    0.0304 O.3       1 <0>        -0.3001
     21 C15         2.3148    7.9659    0.0224 C.3       1 <0>         0.1018
     22 C16         2.0982    9.4572    0.0320 C.ar      1 <0>        -0.1049
     23 C17         1.9938   10.1481   -1.1608 C.ar      1 <0>        -0.0891
     24 C18         1.7908   11.5154   -1.1521 C.ar      1 <0>        -0.1238
     25 C19         1.7018   12.1933    0.0494 C.ar      1 <0>        -0.0731
     26 C20         1.8110   11.5031    1.2421 C.ar      1 <0>        -0.1246
     27 C21         2.0097   10.1351    1.2334 C.ar      1 <0>        -0.0892
     28 C22         1.4852   13.6846    0.0589 C.3       1 <0>        -0.1189
     29 H1         -5.9161   10.1967    4.8148 H         1 <0>         0.0884
     30 H2         -4.2173    9.8254    4.4347 H         1 <0>         0.0676
     31 H3         -5.3006   10.4380    3.1621 H         1 <0>         0.0674
     32 H4         -6.6522    8.3647    3.3146 H         1 <0>         0.1125
     33 H5         -5.5689    7.7521    4.5871 H         1 <0>         0.1105
     34 H6         -1.2793    5.9139    2.1638 H         1 <0>         0.4161
     35 H7         -1.3058    6.9515   -0.4629 H         1 <0>         0.0798
     36 H8         -2.1826    5.4024   -0.4629 H         1 <0>         0.0742
     37 H9         -2.2426    3.6110    0.0416 H         1 <0>         0.1295
     38 H10        -2.1530    1.1770    0.0191 H         1 <0>         0.1242
     39 H11         0.0021   -0.0041    0.0020 H         1 <0>         0.1239
     40 H12         2.1022    1.2294   -0.0107 H         1 <0>         0.1278
     41 H13         3.2955    3.4012   -0.0104 H         1 <0>         0.1343
     42 H14         3.2120    5.8341    0.0031 H         1 <0>         0.1335
     43 H15         2.8835    7.6757    0.9059 H         1 <0>         0.0723
     44 H16         2.8675    7.6847   -0.8740 H         1 <0>         0.0731
     45 H17         2.0675    9.6191   -2.0995 H         1 <0>         0.1247
     46 H18         1.7052   12.0546   -2.0839 H         1 <0>         0.1257
     47 H19         1.7414   12.0327    2.1808 H         1 <0>         0.1244
     48 H20         2.0953    9.5959    2.1653 H         1 <0>         0.1230
     49 H21         2.4499   14.1919    0.0536 H         1 <0>         0.0734
     50 H22         0.9171   13.9749   -0.8249 H         1 <0>         0.0686
     51 H23         0.9318   13.9657    0.9549 H         1 <0>         0.0677
@<TRIPOS>BOND
     1    1    2 1
     2    1   29 1
     3    1   30 1
     4    1   31 1
     5    2    3 1
     6    2   32 1
     7    2   33 1
     8    3    7 1
     9    3    4 1
    10    4    5 2
    11    5    6 1
    12    5    8 1
    13    6    7 2
    14    8    9 1
    15    8   34 1
    16    9   10 1
    17    9   35 1
    18    9   36 1
    19   10   19 ar
    20   10   11 ar
    21   11   16 ar
    22   11   12 ar
    23   12   13 ar
    24   12   37 1
    25   13   14 ar
    26   13   38 1
    27   14   15 ar
    28   14   39 1
    29   15   16 ar
    30   15   40 1
    31   16   17 ar
    32   17   18 ar
    33   17   41 1
    34   18   19 ar
    35   18   42 1
    36   19   20 1
    37   20   21 1
    38   21   22 1
    39   21   43 1
    40   21   44 1
    41   22   27 ar
    42   22   23 ar
    43   23   24 ar
    44   23   45 1
    45   24   25 ar
    46   24   46 1
    47   25   26 ar
    48   25   28 1
    49   26   27 ar
    50   26   47 1
    51   27   48 1
    52   28   49 1
    53   28   50 1
    54   28   51 1
