@<TRIPOS>MOLECULE
ZINC20505220
   25    26     0     0     0
SMALL
USER_CHARGES
(3R)-N-(2,4,6-trichlorophenyl)tetrahydrothiophen-3-amine
@<TRIPOS>ATOM
      1 C1         -1.1479    2.4625    0.7926 C.ar      1 <0>        -0.0920
      2 C2         -0.1991    1.7335    0.0975 C.ar      1 <0>        -0.0221
      3 C3          0.7930    2.3847   -0.6141 C.ar      1 <0>        -0.0918
      4 C4          0.8324    3.7661   -0.6419 C.ar      1 <0>        -0.0312
      5 C5         -0.1186    4.5009    0.0555 C.ar      1 <0>         0.1998
      6 C6         -1.1102    3.8442    0.7738 C.ar      1 <0>        -0.0317
      7 Cl1        -2.3002    4.7579    1.6471 Cl        1 <0>        -0.0351
      8 N1         -0.0780    5.8991    0.0340 N.pl3     1 <0>        -0.7844
      9 C7         -0.6765    6.4243   -1.2005 C.3       1 <0>         0.1530
     10 H1         -0.4459    5.7117   -2.0062 H         1 <0>         0.0847
     11 C8         -0.0549    7.7816   -1.5260 C.3       1 <0>        -0.1369
     12 C9         -1.0016    8.7216   -2.2976 C.3       1 <0>        -0.0686
     13 S1         -2.5805    7.7762   -2.3536 S.3       1 <0>        -0.2869
     14 C10        -2.2121    6.5672   -1.0071 C.3       1 <0>        -0.0801
     15 Cl2         2.0733    4.5821   -1.5408 Cl        1 <0>        -0.0356
     16 Cl3        -0.2495   -0.0015    0.1241 Cl        1 <0>        -0.0423
     17 H2         -1.9184    1.9515    1.3508 H         1 <0>         0.1511
     18 H3          1.5350    1.8129   -1.1518 H         1 <0>         0.1512
     19 H4          0.3247    6.5916    0.7879 H         1 <0>         0.4392
     20 H5          0.2250    8.2902   -0.5917 H         1 <0>         0.0785
     21 H6          0.8416    7.6351   -2.1464 H         1 <0>         0.0847
     22 H7         -1.0992    9.6720   -1.7524 H         1 <0>         0.0934
     23 H8         -0.5906    8.9143   -3.2996 H         1 <0>         0.1022
     24 H9         -2.6912    5.5859   -1.1396 H         1 <0>         0.1035
     25 H10        -2.4207    6.9434    0.0053 H         1 <0>         0.0976
@<TRIPOS>BOND
     1    1    6 ar
     2    1    2 ar
     3    1   17 1
     4    2    3 ar
     5    2   16 1
     6    3    4 ar
     7    3   18 1
     8    4    5 ar
     9    4   15 1
    10    5    6 ar
    11    5    8 1
    12    6    7 1
    13    8    9 1
    14    8   19 1
    15    9   10 1
    16    9   14 1
    17    9   11 1
    18   11   12 1
    19   11   20 1
    20   11   21 1
    21   12   13 1
    22   12   22 1
    23   12   23 1
    24   13   14 1
    25   14   24 1
    26   14   25 1
