@<TRIPOS>MOLECULE
ZINC00105183
   27    28     0     0     0
SMALL
USER_CHARGES
5-[(5-bromo-2-thienyl)methylene]-1,3-dimethyl-2-thioxo-hexahydropyrimidine-4,6-dione
@<TRIPOS>ATOM
      1 C1         -0.2328    1.1493   -0.0964 C.3       1 <0>         0.0683
      2 N1         -0.6518    1.5672    1.2437 N.am      1 <0>        -0.5163
      3 C2         -1.3071    0.6910    2.0326 C.2       1 <0>         0.5636
      4 O1         -1.5525   -0.4363    1.6451 O.2       1 <0>        -0.4673
      5 C3         -1.7174    1.1348    3.3757 C.2       1 <0>        -0.2979
      6 C4         -2.3969    0.2867    4.2443 C.2       1 <0>         0.1905
      7 C5         -2.9496    0.7933    5.4298 C.2       1 <0>        -0.2414
      8 C6         -2.9269    0.2475    6.7161 C.2       1 <0>        -0.0664
      9 C7         -3.5475    0.9612    7.7028 C.2       1 <0>        -0.1471
     10 C8         -4.1570    2.1415    7.3901 C.2       1 <0>        -0.2003
     11 S1         -3.8718    2.2988    5.6874 S.3       1 <0>         0.3175
     12 Br1        -5.0888    3.3210    8.5376 Br        1 <0>         0.0516
     13 C9         -1.3774    2.5156    3.7591 C.2       1 <0>         0.5510
     14 O2         -1.6830    2.9536    4.8525 O.2       1 <0>        -0.4584
     15 N2         -0.7178    3.2815    2.8658 N.am      1 <0>        -0.5139
     16 C10        -0.3704    2.8099    1.6601 C.2       1 <0>         0.5194
     17 S2          0.4714    3.8515    0.5936 S.2       1 <0>        -0.5033
     18 C11        -0.3684    4.6585    3.2237 C.3       1 <0>         0.0682
     19 H1         -0.5365    0.1163   -0.2664 H         1 <0>         0.1057
     20 H2          0.8512    1.2276   -0.1791 H         1 <0>         0.0982
     21 H3         -0.7014    1.7930   -0.8408 H         1 <0>         0.0980
     22 H4         -2.4989   -0.7617    4.0058 H         1 <0>         0.1762
     23 H5         -2.4382   -0.6934    6.9217 H         1 <0>         0.1546
     24 H6         -3.5599    0.5925    8.7178 H         1 <0>         0.1481
     25 H7         -0.7203    4.8721    4.2330 H         1 <0>         0.1055
     26 H8          0.7140    4.7810    3.1829 H         1 <0>         0.0977
     27 H9         -0.8387    5.3469    2.5216 H         1 <0>         0.0979
@<TRIPOS>BOND
     1    1    2 1
     2    1   19 1
     3    1   20 1
     4    1   21 1
     5    2   16 1
     6    2    3 am
     7    3    4 2
     8    3    5 1
     9    5    6 2
    10    5   13 1
    11    6    7 1
    12    6   22 1
    13    7   11 1
    14    7    8 2
    15    8    9 1
    16    8   23 1
    17    9   10 2
    18    9   24 1
    19   10   11 1
    20   10   12 1
    21   13   14 2
    22   13   15 am
    23   15   16 1
    24   15   18 1
    25   16   17 2
    26   18   25 1
    27   18   26 1
    28   18   27 1
