@<TRIPOS>MOLECULE
ZINC37465455
   22    22     0     0     0
SMALL
USER_CHARGES

@<TRIPOS>ATOM
      1 C1         -0.0187    1.5258    0.0104 C.3       1 <0>        -0.1865
      2 C2          0.0021   -0.0041    0.0020 C.3       1 <0>         0.1067
      3 H1          0.5293   -0.3651    0.8851 H         1 <0>         0.0589
      4 C3         -1.4333   -0.5336    0.0129 C.3       1 <0>        -0.0853
      5 C4         -1.4136   -2.0361    0.1285 C.ar      1 <0>        -0.0488
      6 C5         -1.4784   -2.8179   -1.0098 C.ar      1 <0>        -0.0960
      7 C6         -1.4598   -4.1959   -0.9039 C.ar      1 <0>        -0.1037
      8 C7         -1.3764   -4.7930    0.3403 C.ar      1 <0>        -0.1188
      9 C8         -1.3115   -4.0123    1.4787 C.ar      1 <0>        -0.0916
     10 C9         -1.3248   -2.6329    1.3729 C.ar      1 <0>        -0.0939
     11 Br1        -1.2289   -1.5639    2.9298 Br        1 <0>        -0.0516
     12 O1          0.6709   -0.4649   -1.1737 O.3       1 <0>        -0.5649
     13 H2          1.0039    1.9031    0.0027 H         1 <0>         0.0607
     14 H3         -0.5459    1.8868   -0.8726 H         1 <0>         0.0651
     15 H4         -0.5289    1.8773    0.9072 H         1 <0>         0.0679
     16 H5         -1.9701   -0.1109    0.8621 H         1 <0>         0.0947
     17 H6         -1.9334   -0.2470   -0.9122 H         1 <0>         0.0855
     18 H7         -1.5440   -2.3519   -1.9819 H         1 <0>         0.1317
     19 H8         -1.5109   -4.8064   -1.7934 H         1 <0>         0.1291
     20 H9         -1.3622   -5.8698    0.4226 H         1 <0>         0.1310
     21 H10        -1.2463   -4.4788    2.4506 H         1 <0>         0.1319
     22 H11         1.5879   -0.1667   -1.2470 H         1 <0>         0.3783
@<TRIPOS>BOND
     1    1    2 1
     2    1   13 1
     3    1   14 1
     4    1   15 1
     5    2    3 1
     6    2    4 1
     7    2   12 1
     8    4    5 1
     9    4   16 1
    10    4   17 1
    11    5   10 ar
    12    5    6 ar
    13    6    7 ar
    14    6   18 1
    15    7    8 ar
    16    7   19 1
    17    8    9 ar
    18    8   20 1
    19    9   10 ar
    20    9   21 1
    21   10   11 1
    22   12   22 1
