@<TRIPOS>MOLECULE
ZINC41710799
   37    39     0     0     0
SMALL
USER_CHARGES

@<TRIPOS>ATOM
      1 C1         -0.0187    1.5258    0.0104 C.3       1 <0>        -0.1598
      2 C2          0.0021   -0.0041    0.0020 C.3       1 <0>         0.1662
      3 H1          0.5123   -0.3556   -0.8948 H         1 <0>         0.1148
      4 C3         -1.4117   -0.5257    0.0127 C.ar      1 <0>        -0.0912
      5 C4         -2.2591   -0.2041    1.0566 C.ar      1 <0>        -0.0784
      6 C5         -3.5558   -0.6821    1.0671 C.ar      1 <0>        -0.1017
      7 C6         -4.0068   -1.4826    0.0323 C.ar      1 <0>        -0.0173
      8 C7         -3.1596   -1.8043   -1.0125 C.ar      1 <0>        -0.1011
      9 C8         -1.8631   -1.3215   -1.0249 C.ar      1 <0>        -0.0112
     10 Cl1        -0.8009   -1.7198   -2.3390 Cl        1 <0>        -0.0481
     11 Cl2        -5.6355   -2.0834    0.0460 Cl        1 <0>        -0.0493
     12 N1          0.7106   -0.4894    1.1889 N.pl3     1 <0>        -0.4294
     13 C9          0.3520   -0.2487    2.4843 C.2       1 <0>        -0.0279
     14 C10         1.2452   -0.8608    3.2919 C.2       1 <0>        -0.1623
     15 C11         2.1832   -1.4987    2.4672 C.2       1 <0>        -0.1640
     16 C12         1.8302   -1.2584    1.1838 C.2       1 <0>         0.0326
     17 C13         2.5907   -1.7771   -0.0119 C.3       1 <0>        -0.0519
     18 C14         3.9802   -2.2267    0.4557 C.3       1 <0>        -0.1088
     19 C15         3.8381   -3.1463    1.6717 C.3       1 <0>        -0.1520
     20 C16         3.3782   -2.3191    2.8813 C.3       1 <0>         0.1794
     21 H2          4.1799   -1.6588    3.2121 H         1 <0>         0.0604
     22 O1          3.0114   -3.2015    3.9438 O.3       1 <0>        -0.5613
     23 H3          1.0039    1.9031    0.0027 H         1 <0>         0.0736
     24 H4         -0.5459    1.8868   -0.8726 H         1 <0>         0.0795
     25 H5         -0.5289    1.8773    0.9072 H         1 <0>         0.0691
     26 H6         -1.9075    0.4206    1.8644 H         1 <0>         0.1448
     27 H7         -4.2171   -0.4311    1.8832 H         1 <0>         0.1453
     28 H8         -3.5112   -2.4290   -1.8203 H         1 <0>         0.1487
     29 H9         -0.4993    0.3319    2.8077 H         1 <0>         0.1594
     30 H10         1.2384   -0.8590    4.3719 H         1 <0>         0.1363
     31 H11         2.0582   -2.6230   -0.4468 H         1 <0>         0.0762
     32 H12         2.6916   -0.9855   -0.7543 H         1 <0>         0.0711
     33 H13         4.4781   -2.7652   -0.3507 H         1 <0>         0.0731
     34 H14         4.5720   -1.3529    0.7283 H         1 <0>         0.0688
     35 H15         3.1043   -3.9229    1.4562 H         1 <0>         0.0735
     36 H16         4.8007   -3.6072    1.8931 H         1 <0>         0.0675
     37 H17         3.7353   -3.7598    4.2590 H         1 <0>         0.3753
@<TRIPOS>BOND
     1    1    2 1
     2    1   23 1
     3    1   24 1
     4    1   25 1
     5    2    3 1
     6    2    4 1
     7    2   12 1
     8    4    9 ar
     9    4    5 ar
    10    5    6 ar
    11    5   26 1
    12    6    7 ar
    13    6   27 1
    14    7    8 ar
    15    7   11 1
    16    8    9 ar
    17    8   28 1
    18    9   10 1
    19   12   16 1
    20   12   13 1
    21   13   14 2
    22   13   29 1
    23   14   15 1
    24   14   30 1
    25   15   20 1
    26   15   16 2
    27   16   17 1
    28   17   18 1
    29   17   31 1
    30   17   32 1
    31   18   19 1
    32   18   33 1
    33   18   34 1
    34   19   20 1
    35   19   35 1
    36   19   36 1
    37   20   21 1
    38   20   22 1
    39   22   37 1
