@<TRIPOS>MOLECULE
ZINC38853103
   64    67     0     0     0
SMALL
USER_CHARGES

@<TRIPOS>ATOM
      1 C1         -0.0184    1.5028    0.0103 C.3       1 <0>        -0.1235
      2 C2          0.0021   -0.0041    0.0020 C.ar      1 <0>        -0.0640
      3 C3          0.0057   -0.6888   -1.1991 C.ar      1 <0>        -0.1213
      4 C4          0.0245   -2.0707   -1.2067 C.ar      1 <0>        -0.1039
      5 C5          0.0400   -2.7685   -0.0132 C.ar      1 <0>        -0.1253
      6 C6          0.0373   -2.0840    1.1875 C.ar      1 <0>        -0.0950
      7 C7          0.0229   -0.7015    1.1951 C.ar      1 <0>        -0.0865
      8 C8          0.0252    0.0449    2.5043 C.3       1 <0>        -0.0430
      9 S1         -1.6839    0.3212    3.0458 S.3       1 <0>        -0.2192
     10 C9         -1.5081    1.2180    4.6129 C.3       1 <0>        -0.1175
     11 C10        -2.8942    1.5187    5.1866 C.3       1 <0>         0.1355
     12 N1         -2.7523    2.2429    6.4521 N.am      1 <0>        -0.7173
     13 C11        -3.8486    2.6154    7.1420 C.2       1 <0>         0.5248
     14 O1         -4.9526    2.3511    6.7151 O.2       1 <0>        -0.5243
     15 C12        -3.7026    3.3604    8.4438 C.3       1 <0>        -0.1305
     16 H1         -3.1707    4.2959    8.2702 H         1 <0>         0.1212
     17 C13        -2.9161    2.5021    9.4388 C.3       1 <0>        -0.1303
     18 C14        -2.8409    3.2343   10.7817 C.3       1 <0>        -0.1411
     19 C15        -4.2587    3.5373   11.2712 C.3       1 <0>        -0.0142
     20 N2         -4.9490    4.3823   10.2895 N.4       1 <0>        -0.3826
     21 C16        -5.0884    3.6597    9.0195 C.3       1 <0>         0.0094
     22 C17        -6.2809    4.7346   10.7994 C.3       1 <0>         0.0443
     23 C18        -6.1369    5.5901   12.0316 C.ar      1 <0>        -0.1593
     24 C19        -6.2683    5.0363   13.2682 C.ar      1 <0>        -0.0601
     25 C20        -6.1386    5.8113   14.4188 C.ar      1 <0>        -0.1320
     26 C21        -5.8771    7.1449   14.3398 C.ar      1 <0>        -0.0580
     27 C22        -5.7350    7.7520   13.0807 C.ar      1 <0>        -0.0579
     28 C23        -5.8608    6.9623   11.9103 C.ar      1 <0>        -0.0299
     29 C24        -5.7127    7.5686   10.6509 C.ar      1 <0>        -0.1522
     30 C25        -5.4455    8.9007   10.5722 C.ar      1 <0>        -0.0780
     31 C26        -5.3153    9.6759   11.7233 C.ar      1 <0>        -0.1162
     32 C27        -5.4654    9.1260   12.9591 C.ar      1 <0>        -0.0846
     33 H2          1.0042    1.8801    0.0026 H         1 <0>         0.0717
     34 H3         -0.5455    1.8639   -0.8728 H         1 <0>         0.0710
     35 H4         -0.5286    1.8543    0.9071 H         1 <0>         0.0718
     36 H5         -0.0064   -0.1437   -2.1314 H         1 <0>         0.1261
     37 H6          0.0266   -2.6056   -2.1449 H         1 <0>         0.1262
     38 H7          0.0540   -3.8484   -0.0191 H         1 <0>         0.1262
     39 H8          0.0491   -2.6290    2.1199 H         1 <0>         0.1239
     40 H9          0.5542   -0.5412    3.2558 H         1 <0>         0.0913
     41 H10         0.5249    1.0049    2.3743 H         1 <0>         0.0938
     42 H11        -0.9469    0.6072    5.3200 H         1 <0>         0.0891
     43 H12        -0.9762    2.1533    4.4386 H         1 <0>         0.0891
     44 H13        -3.4554    2.1295    4.4794 H         1 <0>         0.0850
     45 H14        -3.4261    0.5834    5.3609 H         1 <0>         0.0850
     46 H15        -1.8693    2.4543    6.7936 H         1 <0>         0.4044
     47 H16        -3.4205    1.5452    9.5731 H         1 <0>         0.0913
     48 H17        -1.9085    2.3340    9.0584 H         1 <0>         0.0988
     49 H18        -2.3306    2.6053   11.5111 H         1 <0>         0.1185
     50 H19        -2.2916    4.1675   10.6572 H         1 <0>         0.0903
     51 H20        -4.8070    2.6035   11.3956 H         1 <0>         0.1316
     52 H21        -4.2088    4.0585   12.2273 H         1 <0>         0.1333
     53 H22        -5.6504    4.2708    8.3132 H         1 <0>         0.1398
     54 H23        -5.6197    2.7237    9.1917 H         1 <0>         0.1406
     55 H24        -6.8280    5.2870   10.0354 H         1 <0>         0.1389
     56 H25        -6.8262    3.8248   11.0504 H         1 <0>         0.1399
     57 H26        -6.4765    3.9804   13.3587 H         1 <0>         0.1336
     58 H27        -6.2474    5.3471   15.3879 H         1 <0>         0.1378
     59 H28        -5.7798    7.7333   15.2402 H         1 <0>         0.1400
     60 H29        -5.8102    6.9804    9.7504 H         1 <0>         0.1189
     61 H30        -5.3322    9.3641    9.6033 H         1 <0>         0.1323
     62 H31        -5.1027   10.7309   11.6328 H         1 <0>         0.1343
     63 H32        -5.3626    9.7392   13.8422 H         1 <0>         0.1379
     64 H33        -4.4153    5.2251   10.1382 H         1 <0>         0.4202
@<TRIPOS>BOND
     1    1    2 1
     2    1   33 1
     3    1   34 1
     4    1   35 1
     5    2    7 ar
     6    2    3 ar
     7    3    4 ar
     8    3   36 1
     9    4    5 ar
    10    4   37 1
    11    5    6 ar
    12    5   38 1
    13    6    7 ar
    14    6   39 1
    15    7    8 1
    16    8    9 1
    17    8   40 1
    18    8   41 1
    19    9   10 1
    20   10   11 1
    21   10   42 1
    22   10   43 1
    23   11   12 1
    24   11   44 1
    25   11   45 1
    26   12   13 am
    27   12   46 1
    28   13   14 2
    29   13   15 1
    30   15   16 1
    31   15   21 1
    32   15   17 1
    33   17   18 1
    34   17   47 1
    35   17   48 1
    36   18   19 1
    37   18   49 1
    38   18   50 1
    39   19   20 1
    40   19   51 1
    41   19   52 1
    42   20   21 1
    43   20   22 1
    44   20   64 1
    45   21   53 1
    46   21   54 1
    47   22   23 1
    48   22   55 1
    49   22   56 1
    50   23   28 ar
    51   23   24 ar
    52   24   25 ar
    53   24   57 1
    54   25   26 ar
    55   25   58 1
    56   26   27 ar
    57   26   59 1
    58   27   32 ar
    59   27   28 ar
    60   28   29 ar
    61   29   30 ar
    62   29   60 1
    63   30   31 ar
    64   30   61 1
    65   31   32 ar
    66   31   62 1
    67   32   63 1
