@<TRIPOS>MOLECULE
ZINC09030744
   41    43     0     0     0
SMALL
USER_CHARGES

@<TRIPOS>ATOM
      1 C1         -0.8993    1.6762   -0.8490 C.3       1 <0>        -0.1468
      2 C2         -0.8166    0.1523   -0.7407 C.3       1 <0>        -0.0672
      3 C3         -2.2138   -0.4476   -0.9103 C.3       1 <0>        -0.1472
      4 C4          0.0926   -0.3794   -1.8185 C.ar      1 <0>        -0.0127
      5 C5         -0.2048   -0.1501   -3.1489 C.ar      1 <0>        -0.1345
      6 C6          0.6292   -0.6378   -4.1376 C.ar      1 <0>        -0.0104
      7 C7          1.7609   -1.3543   -3.7959 C.ar      1 <0>        -0.6529
      8 C8          2.0588   -1.5828   -2.4655 C.ar      1 <0>        -0.0160
      9 C9          1.2271   -1.0914   -1.4767 C.ar      1 <0>        -0.1374
     10 S1          2.8233   -1.9769   -5.0562 S.o2      1 <0>         2.6257
     11 O1          3.5206   -3.0789   -4.4917 O.2       1 <0>        -0.9643
     12 O2          2.0331   -2.0963   -6.2311 O.2       1 <0>        -0.9487
     13 N1          3.9553   -0.8080   -5.3639 N.2       1 <0>        -0.9363
     14 C10         5.2246   -1.1011   -5.3155 C.2       1 <0>         0.4170
     15 C11         6.2114   -0.0851   -4.9008 C.2       1 <0>        -0.0369
     16 C12         7.4686   -0.4462   -4.5869 C.2       1 <0>        -0.1260
     17 C13         7.8788   -1.8574   -4.6520 C.2       1 <0>         0.4268
     18 O3          8.9210   -2.2185   -4.1391 O.2       1 <0>        -0.3924
     19 C14         7.0122   -2.8314   -5.3458 C.ar      1 <0>        -0.1017
     20 C15         5.6955   -2.4607   -5.6702 C.ar      1 <0>        -0.1226
     21 C16         4.8649   -3.3644   -6.3175 C.ar      1 <0>        -0.0459
     22 C17         5.3387   -4.6261   -6.6343 C.ar      1 <0>        -0.0853
     23 C18         6.6329   -4.9923   -6.3105 C.ar      1 <0>        -0.0799
     24 C19         7.4742   -4.1014   -5.6760 C.ar      1 <0>        -0.0620
     25 Br1         8.7187    0.8706   -4.0586 Br        1 <0>         0.0175
     26 H1          0.0961    2.1036   -0.7281 H         1 <0>         0.0585
     27 H2         -1.2960    1.9499   -1.8267 H         1 <0>         0.0599
     28 H3         -1.5569    2.0607   -0.0694 H         1 <0>         0.0645
     29 H4         -0.4199   -0.1215    0.2370 H         1 <0>         0.0849
     30 H5         -2.6105   -0.1739   -1.8880 H         1 <0>         0.0599
     31 H6         -2.1549   -1.5333   -0.8332 H         1 <0>         0.0583
     32 H7         -2.8714   -0.0631   -0.1307 H         1 <0>         0.0647
     33 H8         -1.0890    0.4097   -3.4158 H         1 <0>         0.1369
     34 H9          0.3964   -0.4593   -5.1770 H         1 <0>         0.1433
     35 H10         2.9428   -2.1428   -2.1986 H         1 <0>         0.1407
     36 H11         1.4618   -1.2667   -0.4372 H         1 <0>         0.1363
     37 H12         5.9227    0.9543   -4.8493 H         1 <0>         0.1774
     38 H13         3.8534   -3.0849   -6.5727 H         1 <0>         0.1110
     39 H14         4.6928   -5.3301   -7.1378 H         1 <0>         0.1456
     40 H15         6.9896   -5.9798   -6.5632 H         1 <0>         0.1473
     41 H16         8.4834   -4.3939   -5.4260 H         1 <0>         0.1509
@<TRIPOS>BOND
     1    1    2 1
     2    1   26 1
     3    1   27 1
     4    1   28 1
     5    2    3 1
     6    2    4 1
     7    2   29 1
     8    3   30 1
     9    3   31 1
    10    3   32 1
    11    4    9 ar
    12    4    5 ar
    13    5    6 ar
    14    5   33 1
    15    6    7 ar
    16    6   34 1
    17    7    8 ar
    18    7   10 1
    19    8    9 ar
    20    8   35 1
    21    9   36 1
    22   10   11 2
    23   10   12 2
    24   10   13 1
    25   13   14 2
    26   14   20 1
    27   14   15 1
    28   15   16 2
    29   15   37 1
    30   16   17 1
    31   16   25 1
    32   17   18 2
    33   17   19 1
    34   19   24 ar
    35   19   20 ar
    36   20   21 ar
    37   21   22 ar
    38   21   38 1
    39   22   23 ar
    40   22   39 1
    41   23   24 ar
    42   23   40 1
    43   24   41 1
