@<TRIPOS>MOLECULE
ZINC35285032
   27    28     0     0     0
SMALL
USER_CHARGES

@<TRIPOS>ATOM
      1 C1         -0.0167    1.3789    0.0096 C.ar      1 <0>        -0.0992
      2 C2          1.1705    2.0873    0.0021 C.ar      1 <0>        -0.0640
      3 C3          2.3773    1.4143   -0.0131 C.ar      1 <0>        -0.1000
      4 C4          2.3978    0.0296   -0.0207 C.ar      1 <0>         0.1269
      5 C5          1.2090   -0.6794   -0.0132 C.ar      1 <0>        -0.1265
      6 C6          0.0021   -0.0041    0.0020 C.ar      1 <0>        -0.0571
      7 Br1        -1.6226   -0.9717    0.0124 Br        1 <0>        -0.0272
      8 F1          3.5774   -0.6288   -0.0360 F         1 <0>        -0.1234
      9 C7          3.6711    2.1872   -0.0218 C.3       1 <0>        -0.0676
     10 S1          4.2068    2.4886    1.6849 S.3       1 <0>        -0.0912
     11 C8          5.7109    3.3890    1.5068 C.ar      1 <0>        -0.1295
     12 C9          6.2089    3.7070    0.2453 C.ar      1 <0>        -0.1368
     13 C10         7.3905    4.4135    0.1477 C.ar      1 <0>         0.0574
     14 N1          8.0489    4.7885    1.2281 N.ar      1 <0>        -0.4466
     15 C11         7.6145    4.5093    2.4433 C.ar      1 <0>         0.0439
     16 C12         6.4347    3.8091    2.6298 C.ar      1 <0>         0.1896
     17 N2          5.9750    3.5210    3.9210 N.pl3     1 <0>        -0.8623
     18 H1         -0.9593    1.9058    0.0260 H         1 <0>         0.1458
     19 H2          1.1548    3.1671    0.0077 H         1 <0>         0.1475
     20 H3          1.2239   -1.7592   -0.0195 H         1 <0>         0.1505
     21 H4          4.4343    1.6121   -0.5460 H         1 <0>         0.1051
     22 H5          3.5216    3.1401   -0.5294 H         1 <0>         0.1086
     23 H6          5.6775    3.4042   -0.6449 H         1 <0>         0.1330
     24 H7          7.7823    4.6630   -0.8274 H         1 <0>         0.1573
     25 H8          8.1839    4.8344    3.3015 H         1 <0>         0.1583
     26 H9          5.1492    3.0269    4.0428 H         1 <0>         0.4022
     27 H10         6.4823    3.8157    4.6934 H         1 <0>         0.4053
@<TRIPOS>BOND
     1    1    6 ar
     2    1    2 ar
     3    1   18 1
     4    2    3 ar
     5    2   19 1
     6    3    4 ar
     7    3    9 1
     8    4    5 ar
     9    4    8 1
    10    5    6 ar
    11    5   20 1
    12    6    7 1
    13    9   10 1
    14    9   21 1
    15    9   22 1
    16   10   11 1
    17   11   16 ar
    18   11   12 ar
    19   12   13 ar
    20   12   23 1
    21   13   14 ar
    22   13   24 1
    23   14   15 ar
    24   15   16 ar
    25   15   25 1
    26   16   17 1
    27   17   26 1
    28   17   27 1
