@<TRIPOS>MOLECULE
ZINC67248767
   41    44     0     0     0
SMALL
USER_CHARGES

@<TRIPOS>ATOM
      1 C1          3.1486   -0.3837   -2.6963 C.ar      1 <0>        -0.1478
      2 C2          3.0272    0.7667   -1.9414 C.ar      1 <0>        -0.0482
      3 C3          3.8177    0.9539   -0.8197 C.ar      1 <0>        -0.1487
      4 C4          4.7353   -0.0152   -0.4544 C.ar      1 <0>         0.1455
      5 C5          4.8533   -1.1747   -1.2155 C.ar      1 <0>        -0.0727
      6 C6          4.0618   -1.3559   -2.3326 C.ar      1 <0>        -0.0751
      7 Cl1         5.9990   -2.3966   -0.7592 Cl        1 <0>        -0.0580
      8 O1          5.5383    0.1323    0.6316 O.3       1 <0>        -0.3040
      9 C7          5.1746    1.1145    1.6026 C.3       1 <0>         0.0655
     10 C8          4.8789    2.4308    0.8724 C.3       1 <0>        -0.1912
     11 C9          3.6523    2.2207   -0.0191 C.3       1 <0>         0.1364
     12 H1          2.7608    2.1428    0.6031 H         1 <0>         0.0950
     13 N1          3.5113    3.3619   -0.9332 N.3       1 <0>        -0.6727
     14 C10         2.7620    4.4549   -0.2992 C.3       1 <0>         0.1297
     15 C11         2.5272    5.5525   -1.3048 C.2       1 <0>         0.0587
     16 C12         1.3612    5.5990   -2.0019 C.2       1 <0>        -0.1752
     17 S1          1.6338    7.0550   -3.0041 S.3       1 <0>         0.0200
     18 C13         3.2667    7.4416   -2.3869 C.2       1 <0>         0.1538
     19 N2          3.4461    6.4682   -1.5050 N.2       1 <0>        -0.4920
     20 C14         4.1711    8.5513   -2.7564 C.ar      1 <0>        -0.0283
     21 C15         5.4222    8.6670   -2.1488 C.ar      1 <0>        -0.0408
     22 C16         6.2620    9.7041   -2.4971 C.ar      1 <0>        -0.1537
     23 C17         5.8653   10.6306   -3.4483 C.ar      1 <0>         0.1203
     24 C18         4.6240   10.5204   -4.0547 C.ar      1 <0>        -0.1506
     25 C19         3.7791    9.4836   -3.7182 C.ar      1 <0>        -0.0622
     26 F1          6.6913   11.6452   -3.7853 F         1 <0>        -0.1322
     27 H2          2.5270   -0.5257   -3.5681 H         1 <0>         0.1331
     28 H3          2.3125    1.5241   -2.2275 H         1 <0>         0.1383
     29 H4          4.1560   -2.2563   -2.9215 H         1 <0>         0.1380
     30 H5          4.2860    0.7862    2.1418 H         1 <0>         0.0683
     31 H6          5.9968    1.2601    2.3032 H         1 <0>         0.1119
     32 H7          4.6743    3.2164    1.5997 H         1 <0>         0.0873
     33 H8          5.7353    2.7111    0.2591 H         1 <0>         0.0824
     34 H9          4.4127    3.6808   -1.2554 H         1 <0>         0.3520
     35 H10         1.8036    4.0787    0.0585 H         1 <0>         0.0906
     36 H11         3.3344    4.8482    0.5410 H         1 <0>         0.0513
     37 H12         0.5070    4.9394   -1.9618 H         1 <0>         0.2007
     38 H13         5.7321    7.9459   -1.4069 H         1 <0>         0.1456
     39 H14         7.2304    9.7945   -2.0275 H         1 <0>         0.1453
     40 H15         4.3196   11.2451   -4.7954 H         1 <0>         0.1460
     41 H16         2.8139    9.3958   -4.1949 H         1 <0>         0.1380
@<TRIPOS>BOND
     1    1    6 ar
     2    1    2 ar
     3    1   27 1
     4    2    3 ar
     5    2   28 1
     6    3   11 1
     7    3    4 ar
     8    4    5 ar
     9    4    8 1
    10    5    6 ar
    11    5    7 1
    12    6   29 1
    13    8    9 1
    14    9   10 1
    15    9   30 1
    16    9   31 1
    17   10   11 1
    18   10   32 1
    19   10   33 1
    20   11   12 1
    21   11   13 1
    22   13   14 1
    23   13   34 1
    24   14   15 1
    25   14   35 1
    26   14   36 1
    27   15   19 1
    28   15   16 2
    29   16   17 1
    30   16   37 1
    31   17   18 1
    32   18   19 2
    33   18   20 1
    34   20   25 ar
    35   20   21 ar
    36   21   22 ar
    37   21   38 1
    38   22   23 ar
    39   22   39 1
    40   23   24 ar
    41   23   26 1
    42   24   25 ar
    43   24   40 1
    44   25   41 1
