@<TRIPOS>MOLECULE
ZINC48522946
   35    37     0     0     0
SMALL
USER_CHARGES

@<TRIPOS>ATOM
      1 C1         -0.0187    1.5258    0.0104 C.3       1 <0>        -0.1609
      2 C2          0.0021   -0.0041    0.0020 C.3       1 <0>         0.0734
      3 H1          0.5123   -0.3556   -0.8948 H         1 <0>         0.1443
      4 C3         -1.4117   -0.5257    0.0127 C.2       1 <0>         0.3939
      5 O1         -1.9075   -0.9122    1.0496 O.2       1 <0>        -0.4365
      6 C4         -2.1906   -0.5660   -1.2353 C.ar      1 <0>        -0.1715
      7 C5         -1.6203   -0.1266   -2.4343 C.ar      1 <0>        -0.0726
      8 C6         -2.3565   -0.1680   -3.5995 C.ar      1 <0>        -0.1298
      9 C7         -3.6564   -0.6428   -3.5845 C.ar      1 <0>        -0.0800
     10 C8         -4.2280   -1.0790   -2.4019 C.ar      1 <0>        -0.1308
     11 C9         -3.5030   -1.0494   -1.2295 C.ar      1 <0>        -0.0545
     12 N1          0.7106   -0.4894    1.1889 N.am      1 <0>        -0.5384
     13 C10         0.2453   -0.1751    2.4261 C.2       1 <0>         0.4037
     14 N2          0.8165   -0.5661    3.5245 N.2       1 <0>        -0.5232
     15 C11         1.9376   -1.3299    3.5102 C.ar      1 <0>         0.1744
     16 C12         2.5521   -1.7512    4.6913 C.ar      1 <0>        -0.1050
     17 C13         3.6884   -2.5257    4.6301 C.ar      1 <0>        -0.0390
     18 C14         4.2333   -2.8946    3.4064 C.ar      1 <0>        -0.1272
     19 C15         3.6451   -2.4907    2.2273 C.ar      1 <0>        -0.0014
     20 C16         2.4940   -1.7067    2.2678 C.ar      1 <0>        -0.1983
     21 C17         1.8196   -1.2513    1.0429 C.2       1 <0>         0.5526
     22 O2          2.2446   -1.5449   -0.0593 O.2       1 <0>        -0.5032
     23 I1          5.9638   -4.0742    3.3532 I         1 <0>        -0.0252
     24 H2          1.0039    1.9031    0.0027 H         1 <0>         0.0834
     25 H3         -0.5459    1.8868   -0.8726 H         1 <0>         0.0918
     26 H4         -0.5289    1.8773    0.9072 H         1 <0>         0.0740
     27 H5         -0.6062    0.2446   -2.4474 H         1 <0>         0.1333
     28 H6         -1.9176    0.1714   -4.5261 H         1 <0>         0.1335
     29 H7         -4.2279   -0.6727   -4.5005 H         1 <0>         0.1311
     30 H8         -5.2431   -1.4479   -2.3983 H         1 <0>         0.1329
     31 H9         -3.9488   -1.3943   -0.3083 H         1 <0>         0.1358
     32 H10        -0.6452    0.4315    2.4996 H         1 <0>         0.2017
     33 H11         2.1379   -1.4704    5.6484 H         1 <0>         0.1507
     34 H12         4.1625   -2.8503    5.5446 H         1 <0>         0.1423
     35 H13         4.0728   -2.7804    1.2788 H         1 <0>         0.1449
@<TRIPOS>BOND
     1    1    2 1
     2    1   24 1
     3    1   25 1
     4    1   26 1
     5    2    3 1
     6    2    4 1
     7    2   12 1
     8    4    5 2
     9    4    6 1
    10    6   11 ar
    11    6    7 ar
    12    7    8 ar
    13    7   27 1
    14    8    9 ar
    15    8   28 1
    16    9   10 ar
    17    9   29 1
    18   10   11 ar
    19   10   30 1
    20   11   31 1
    21   12   21 am
    22   12   13 1
    23   13   14 2
    24   13   32 1
    25   14   15 1
    26   15   20 ar
    27   15   16 ar
    28   16   17 ar
    29   16   33 1
    30   17   18 ar
    31   17   34 1
    32   18   19 ar
    33   18   23 1
    34   19   20 ar
    35   19   35 1
    36   20   21 1
    37   21   22 2
