@<TRIPOS>MOLECULE
ZINC13948061
   54    57     0     0     0
SMALL
USER_CHARGES
4-isobutyl-N-[4-(6-methyl-1,3-benzothiazol-2-yl)phenyl]benzenesulfonamide
@<TRIPOS>ATOM
      1 C1          2.4442    7.5718   13.4489 C.3       1 <0>        -0.1160
      2 C2          2.0379    7.9500   12.0479 C.ar      1 <0>        -0.0539
      3 C3          2.5348    9.1060   11.4619 C.ar      1 <0>        -0.1126
      4 C4          2.1868    9.4734   10.1999 C.ar      1 <0>        -0.0515
      5 C5          1.2982    8.6822    9.4331 C.ar      1 <0>         0.0693
      6 C6          0.8090    7.5106   10.0577 C.ar      1 <0>        -0.1320
      7 C7          1.1670    7.1487   11.3332 C.ar      1 <0>        -0.0731
      8 S1         -0.2411    6.8218    8.8012 S.3       1 <0>        -0.0031
      9 C8          0.0252    8.0880    7.5680 C.2       1 <0>         0.1952
     10 N1          0.8616    8.9006    8.1771 N.2       1 <0>        -0.4903
     11 C9         -0.5438    8.1920    6.2086 C.ar      1 <0>        -0.0144
     12 C10        -0.2070    9.2722    5.3899 C.ar      1 <0>        -0.0572
     13 C11        -0.7394    9.3668    4.1231 C.ar      1 <0>        -0.1054
     14 C12        -1.6123    8.3880    3.6592 C.ar      1 <0>         0.1449
     15 C13        -1.9538    7.3137    4.4743 C.ar      1 <0>        -0.1090
     16 C14        -1.4200    7.2107    5.7399 C.ar      1 <0>        -0.0800
     17 N2         -2.1502    8.4869    2.3773 N.pl3     1 <0>        -1.0643
     18 S2         -1.2053    8.1656    1.0558 S.o2      1 <0>         2.6874
     19 O1         -0.0164    8.9283    1.2115 O.2       1 <0>        -0.9450
     20 O2         -2.0454    8.2883   -0.0837 O.2       1 <0>        -0.9498
     21 C15        -0.7327    6.4709    1.1529 C.ar      1 <0>        -0.6811
     22 C16        -1.5755    5.4894    0.6658 C.ar      1 <0>        -0.0144
     23 C17        -1.2045    4.1599    0.7416 C.ar      1 <0>        -0.1395
     24 C18         0.0094    3.8120    1.3040 C.ar      1 <0>        -0.0167
     25 C19         0.8498    4.7931    1.7959 C.ar      1 <0>        -0.1362
     26 C20         0.4806    6.1229    1.7166 C.ar      1 <0>        -0.0128
     27 C21         0.4138    2.3626    1.3866 C.3       1 <0>        -0.0883
     28 C22         1.1795    1.9738    0.1203 C.3       1 <0>        -0.0909
     29 C23         1.4814    0.4742    0.1471 C.3       1 <0>        -0.1486
     30 C24         2.4921    2.7574    0.0573 C.3       1 <0>        -0.1548
     31 H1          1.7464    8.0123   14.1610 H         1 <0>         0.0784
     32 H2          2.4306    6.4866   13.5508 H         1 <0>         0.0719
     33 H3          3.4495    7.9429   13.6484 H         1 <0>         0.0741
     34 H4          3.2154    9.7294   12.0226 H         1 <0>         0.1362
     35 H5          2.5937   10.3800    9.7772 H         1 <0>         0.1355
     36 H6          0.7708    6.2460   11.7745 H         1 <0>         0.1352
     37 H7          0.4701   10.0328    5.7498 H         1 <0>         0.1455
     38 H8         -0.4793   10.2018    3.4896 H         1 <0>         0.1467
     39 H9         -2.6349    6.5575    4.1129 H         1 <0>         0.1393
     40 H10        -1.6824    6.3743    6.3707 H         1 <0>         0.1348
     41 H11        -3.0780    8.7440    2.2591 H         1 <0>         0.4288
     42 H12        -2.5235    5.7613    0.2258 H         1 <0>         0.1388
     43 H13        -1.8629    3.3930    0.3610 H         1 <0>         0.1328
     44 H14         1.7962    4.5210    2.2393 H         1 <0>         0.1327
     45 H15         1.1388    6.8897    2.0975 H         1 <0>         0.1407
     46 H16        -0.4773    1.7414    1.4775 H         1 <0>         0.0792
     47 H17         1.0518    2.2124    2.2575 H         1 <0>         0.0793
     48 H18         0.5747    2.2071   -0.7560 H         1 <0>         0.0726
     49 H19         2.0862    0.2409    1.0234 H         1 <0>         0.0564
     50 H20         0.5463   -0.0840    0.1920 H         1 <0>         0.0559
     51 H21         2.0269    0.1972   -0.7550 H         1 <0>         0.0580
     52 H22         3.0969    2.5241    0.9336 H         1 <0>         0.0562
     53 H23         3.0376    2.4804   -0.8448 H         1 <0>         0.0567
     54 H24         2.2770    3.8257    0.0382 H         1 <0>         0.0584
@<TRIPOS>BOND
     1    1    2 1
     2    1   31 1
     3    1   32 1
     4    1   33 1
     5    2    7 ar
     6    2    3 ar
     7    3    4 ar
     8    3   34 1
     9    4    5 ar
    10    4   35 1
    11    5   10 1
    12    5    6 ar
    13    6    7 ar
    14    6    8 1
    15    7   36 1
    16    8    9 1
    17    9   10 2
    18    9   11 1
    19   11   16 ar
    20   11   12 ar
    21   12   13 ar
    22   12   37 1
    23   13   14 ar
    24   13   38 1
    25   14   15 ar
    26   14   17 1
    27   15   16 ar
    28   15   39 1
    29   16   40 1
    30   17   18 1
    31   17   41 1
    32   18   19 2
    33   18   20 2
    34   18   21 1
    35   21   26 ar
    36   21   22 ar
    37   22   23 ar
    38   22   42 1
    39   23   24 ar
    40   23   43 1
    41   24   25 ar
    42   24   27 1
    43   25   26 ar
    44   25   44 1
    45   26   45 1
    46   27   28 1
    47   27   46 1
    48   27   47 1
    49   28   29 1
    50   28   30 1
    51   28   48 1
    52   29   49 1
    53   29   50 1
    54   29   51 1
    55   30   52 1
    56   30   53 1
    57   30   54 1
