@<TRIPOS>MOLECULE
ZINC42025500
   33    36     0     0     0
SMALL
USER_CHARGES

@<TRIPOS>ATOM
      1 C1          0.2053    1.0514    0.9423 C.ar      1 <0>        -0.0728
      2 C2          1.3861    1.7755    0.9128 C.ar      1 <0>        -0.1264
      3 C3          2.3894    1.4468    0.0091 C.ar      1 <0>        -0.0493
      4 C4          2.1950    0.3660   -0.8811 C.ar      1 <0>        -0.1373
      5 C5          2.9881   -0.2141   -1.8947 C.2       1 <0>         0.0815
      6 N1          2.3292   -1.2049   -2.4251 N.2       1 <0>        -0.2416
      7 N2          1.0829   -1.3314   -1.7995 N.pl3     1 <0>        -0.5036
      8 H1          0.4042   -1.9919   -2.0095 H         1 <0>         0.4446
      9 C6          0.9899   -0.3580   -0.8370 C.ar      1 <0>         0.1255
     10 C7          0.0035   -0.0041    0.0800 C.ar      1 <0>        -0.1188
     11 C8          3.6454    2.2190   -0.0213 C.2       1 <0>         0.5657
     12 O1          4.7147    1.6431    0.0391 O.2       1 <0>        -0.5219
     13 N3          3.6082    3.5629   -0.1159 N.am      1 <0>        -0.6057
     14 C9          4.8526    4.3362   -0.2415 C.3       1 <0>         0.1174
     15 C10         4.8577    5.0222   -1.6164 C.3       1 <0>        -0.0586
     16 C11         3.4993    5.5883   -1.8742 C.2       1 <0>        -0.1398
     17 C12         2.3348    5.2916   -1.2359 C.2       1 <0>        -0.1447
     18 C13         1.1925    5.9585   -1.6758 C.2       1 <0>        -0.1457
     19 C14         1.2787    6.8536   -2.6863 C.2       1 <0>        -0.1724
     20 S1          3.0208    6.7991   -3.0784 S.3       1 <0>         0.0469
     21 C15         2.3234    4.2753   -0.1011 C.3       1 <0>         0.1626
     22 H2         -0.5643    1.3147    1.6528 H         1 <0>         0.1405
     23 H3          1.5276    2.6002    1.5956 H         1 <0>         0.1358
     24 H4          3.9771    0.1101   -2.1830 H         1 <0>         0.1944
     25 H5         -0.9226   -0.5588    0.1155 H         1 <0>         0.1333
     26 H6          4.8981    5.0894    0.5450 H         1 <0>         0.0812
     27 H7          5.7101    3.6681   -0.1611 H         1 <0>         0.1081
     28 H8          5.5954    5.8246   -1.6219 H         1 <0>         0.0962
     29 H9          5.1022    4.2923   -2.3882 H         1 <0>         0.0900
     30 H10         0.2385    5.7603   -1.2100 H         1 <0>         0.1340
     31 H11         0.4976    7.4465   -3.1387 H         1 <0>         0.1880
     32 H12         1.5073    3.5679   -0.2485 H         1 <0>         0.1062
     33 H13         2.1983    4.7912    0.8509 H         1 <0>         0.0867
@<TRIPOS>BOND
     1    1   10 ar
     2    1    2 ar
     3    1   22 1
     4    2    3 ar
     5    2   23 1
     6    3    4 ar
     7    3   11 1
     8    4    9 ar
     9    4    5 1
    10    5    6 2
    11    5   24 1
    12    6    7 1
    13    7    8 1
    14    7    9 1
    15    9   10 ar
    16   10   25 1
    17   11   12 2
    18   11   13 am
    19   13   21 1
    20   13   14 1
    21   14   15 1
    22   14   26 1
    23   14   27 1
    24   15   16 1
    25   15   28 1
    26   15   29 1
    27   16   20 1
    28   16   17 2
    29   17   18 1
    30   17   21 1
    31   18   19 2
    32   18   30 1
    33   19   20 1
    34   19   31 1
    35   21   32 1
    36   21   33 1
