@<TRIPOS>MOLECULE
ZINC43659621
   36    38     0     0     0
SMALL
USER_CHARGES

@<TRIPOS>ATOM
      1 C1         -0.0166    1.3751    0.0096 C.ar      1 <0>        -0.1115
      2 C2          1.1740    2.0780    0.0020 C.ar      1 <0>        -0.1251
      3 C3          2.3723    1.3951   -0.0161 C.ar      1 <0>        -0.1135
      4 C4          2.3932    0.0062   -0.0252 C.ar      1 <0>        -0.1197
      5 C5          1.2079   -0.6937   -0.0125 C.ar      1 <0>        -0.0552
      6 C6          0.0021   -0.0041    0.0020 C.ar      1 <0>        -0.1248
      7 C7          1.1552   -2.1990   -0.0052 C.3       1 <0>        -0.0854
      8 C8          2.4928   -2.7856   -0.4516 C.3       1 <0>        -0.1179
      9 C9          3.6072   -2.1349    0.3764 C.3       1 <0>        -0.0722
     10 H1          3.3546   -2.1851    1.4355 H         1 <0>         0.0866
     11 C10         3.7365   -0.6749   -0.0530 C.3       1 <0>         0.1550
     12 H2          4.4151   -0.1592    0.6265 H         1 <0>         0.0649
     13 O1          4.2660   -0.6188   -1.3791 O.3       1 <0>        -0.5529
     14 C11         4.9282   -2.8653    0.1266 C.3       1 <0>        -0.0719
     15 C12         4.8261   -4.2782    0.6407 C.ar      1 <0>        -0.0853
     16 C13         5.2718   -4.5847    1.9131 C.ar      1 <0>        -0.1011
     17 C14         5.1784   -5.8799    2.3863 C.ar      1 <0>        -0.0966
     18 C15         4.6395   -6.8719    1.5881 C.ar      1 <0>        -0.1321
     19 C16         4.1926   -6.5684    0.3143 C.ar      1 <0>         0.0687
     20 C17         4.2810   -5.2675   -0.1585 C.ar      1 <0>         0.0690
     21 F1          3.8402   -4.9677   -1.3998 F         1 <0>        -0.1218
     22 F2          3.6663   -7.5373   -0.4664 F         1 <0>        -0.1282
     23 H3         -0.9580    1.9042    0.0259 H         1 <0>         0.1234
     24 H4          1.1658    3.1579    0.0099 H         1 <0>         0.1233
     25 H5          3.3019    1.9448   -0.0236 H         1 <0>         0.1203
     26 H6         -0.9284   -0.5523    0.0071 H         1 <0>         0.1223
     27 H7          0.9293   -2.5458    1.0032 H         1 <0>         0.0768
     28 H8          0.3711   -2.5345   -0.6840 H         1 <0>         0.0773
     29 H9          2.4944   -3.8631   -0.2867 H         1 <0>         0.0704
     30 H10         2.6510   -2.5755   -1.5094 H         1 <0>         0.0784
     31 H11         4.3923    0.2793   -1.7145 H         1 <0>         0.3780
     32 H12         5.1374   -2.8821   -0.9430 H         1 <0>         0.0916
     33 H13         5.7339   -2.3468    0.6463 H         1 <0>         0.0825
     34 H14         5.6936   -3.8113    2.5378 H         1 <0>         0.1399
     35 H15         5.5271   -6.1175    3.3805 H         1 <0>         0.1412
     36 H16         4.5677   -7.8838    1.9588 H         1 <0>         0.1455
@<TRIPOS>BOND
     1    1    6 ar
     2    1    2 ar
     3    1   23 1
     4    2    3 ar
     5    2   24 1
     6    3    4 ar
     7    3   25 1
     8    4   11 1
     9    4    5 ar
    10    5    6 ar
    11    5    7 1
    12    6   26 1
    13    7    8 1
    14    7   27 1
    15    7   28 1
    16    8    9 1
    17    8   29 1
    18    8   30 1
    19    9   10 1
    20    9   11 1
    21    9   14 1
    22   11   12 1
    23   11   13 1
    24   13   31 1
    25   14   15 1
    26   14   32 1
    27   14   33 1
    28   15   20 ar
    29   15   16 ar
    30   16   17 ar
    31   16   34 1
    32   17   18 ar
    33   17   35 1
    34   18   19 ar
    35   18   36 1
    36   19   20 ar
    37   19   22 1
    38   20   21 1
