@<TRIPOS>MOLECULE
ZINC65116808
   38    40     0     0     0
SMALL
USER_CHARGES

@<TRIPOS>ATOM
      1 C1         -0.0187    1.5258    0.0104 C.3       1 <0>        -0.1434
      2 C2          0.0021   -0.0041    0.0020 C.3       1 <0>        -0.0507
      3 C3          0.7074   -0.4901   -1.2379 C.2       1 <0>         0.0622
      4 C4          1.7587   -1.3426   -1.1317 C.2       1 <0>        -0.2163
      5 S1          2.1777   -1.5674   -2.8557 S.3       1 <0>         0.0116
      6 C5          0.9089   -0.5029   -3.5294 C.2       1 <0>         0.1905
      7 N1          0.3023   -0.0935   -2.4236 N.2       1 <0>        -0.5025
      8 C6          0.6127   -0.1725   -4.9391 C.2       1 <0>        -0.0829
      9 C7          1.3681   -0.7196   -5.9743 C.2       1 <0>        -0.0280
     10 C8          1.0663   -0.3930   -7.2501 C.2       1 <0>        -0.6603
     11 S2         -0.3162    0.7161   -7.0419 S.3       1 <0>         0.1948
     12 C9         -0.4144    0.6745   -5.2601 C.2       1 <0>        -0.1121
     13 S3          1.8409   -0.9260   -8.7403 S.o2      1 <0>         2.6256
     14 O1          1.5679    0.0683   -9.7180 O.2       1 <0>        -1.0185
     15 O2          3.1642   -1.3116   -8.3947 O.2       1 <0>        -1.0176
     16 N2          1.0607   -2.3011   -9.2329 N.2       1 <0>        -1.0864
     17 C10         1.4647   -2.9532  -10.4002 C.ar      1 <0>         0.2789
     18 C11         2.5246   -2.4527  -11.1460 C.ar      1 <0>        -0.2684
     19 C12         2.9218   -3.1001  -12.2992 C.ar      1 <0>        -0.0654
     20 C13         2.2654   -4.2452  -12.7123 C.ar      1 <0>        -0.2233
     21 C14         1.2098   -4.7457  -11.9727 C.ar      1 <0>        -0.0549
     22 C15         0.8114   -4.1066  -10.8148 C.ar      1 <0>        -0.1797
     23 C16         0.4970   -5.9932  -12.4272 C.3       1 <0>        -0.1049
     24 H1          1.0039    1.9031    0.0027 H         1 <0>         0.0508
     25 H2         -0.5459    1.8868   -0.8726 H         1 <0>         0.0640
     26 H3         -0.5289    1.8773    0.9072 H         1 <0>         0.0560
     27 H4          0.5293   -0.3651    0.8851 H         1 <0>         0.0761
     28 H5         -1.0205   -0.3814    0.0098 H         1 <0>         0.0772
     29 H6          2.2157   -1.7672   -0.2501 H         1 <0>         0.1959
     30 H7          2.1834   -1.3947   -5.7599 H         1 <0>         0.1474
     31 H8         -1.1040    1.1861   -4.6050 H         1 <0>         0.2009
     32 H9          3.0372   -1.5581  -10.8243 H         1 <0>         0.0952
     33 H10         3.7457   -2.7116  -12.8794 H         1 <0>         0.1017
     34 H11         2.5778   -4.7494  -13.6148 H         1 <0>         0.1005
     35 H12        -0.0101   -4.5008  -10.2350 H         1 <0>         0.1113
     36 H13         0.9799   -6.8673  -11.9903 H         1 <0>         0.0601
     37 H14        -0.5438   -5.9545  -12.1058 H         1 <0>         0.0586
     38 H15         0.5393   -6.0602  -13.5143 H         1 <0>         0.0558
@<TRIPOS>BOND
     1    1    2 1
     2    1   24 1
     3    1   25 1
     4    1   26 1
     5    2    3 1
     6    2   27 1
     7    2   28 1
     8    3    7 1
     9    3    4 2
    10    4    5 1
    11    4   29 1
    12    5    6 1
    13    6    7 2
    14    6    8 1
    15    8   12 2
    16    8    9 1
    17    9   10 2
    18    9   30 1
    19   10   11 1
    20   10   13 1
    21   11   12 1
    22   12   31 1
    23   13   14 2
    24   13   15 2
    25   13   16 1
    26   16   17 1
    27   17   22 ar
    28   17   18 ar
    29   18   19 ar
    30   18   32 1
    31   19   20 ar
    32   19   33 1
    33   20   21 ar
    34   20   34 1
    35   21   22 ar
    36   21   23 1
    37   22   35 1
    38   23   36 1
    39   23   37 1
    40   23   38 1
