@<TRIPOS>MOLECULE
ZINC40996285
   33    34     0     0     0
SMALL
USER_CHARGES

@<TRIPOS>ATOM
      1 C1         -0.0187    1.5258    0.0104 C.3       1 <0>        -0.1893
      2 C2          0.0021   -0.0041    0.0020 C.3       1 <0>        -0.0150
      3 N1          0.6897   -0.4778   -1.2066 N.4       1 <0>        -0.5123
      4 C3          0.7096   -1.9467   -1.2147 C.3       1 <0>         0.1304
      5 H1         -0.3082   -2.3244   -1.1174 H         1 <0>         0.1646
      6 C4          1.5550   -2.4517   -0.0438 C.3       1 <0>        -0.1855
      7 C5          1.3045   -2.4338   -2.5107 C.2       1 <0>        -0.0714
      8 C6          0.8000   -3.4212   -3.2631 C.2       1 <0>        -0.0778
      9 C7          1.6949   -3.5529   -4.4191 C.ar      1 <0>        -0.1389
     10 C8          1.7223   -4.3795   -5.5416 C.ar      1 <0>        -0.0372
     11 C9          2.7257   -4.2423   -6.4603 C.ar      1 <0>        -0.1245
     12 C10         3.7156   -3.2865   -6.2821 C.ar      1 <0>        -0.0335
     13 C11         3.7053   -2.4604   -5.1781 C.ar      1 <0>        -0.1048
     14 C12         2.6939   -2.5832   -4.2326 C.ar      1 <0>         0.1044
     15 O1          2.4151   -1.9370   -3.0827 O.3       1 <0>        -0.1875
     16 I1          5.2098   -1.0243   -4.9266 I         1 <0>        -0.0097
     17 C13        -0.4372   -4.2335   -2.9793 C.3       1 <0>        -0.1063
     18 H2          1.0039    1.9031    0.0027 H         1 <0>         0.0819
     19 H3         -0.5459    1.8868   -0.8726 H         1 <0>         0.0816
     20 H4         -0.5289    1.8773    0.9072 H         1 <0>         0.1095
     21 H5          0.5293   -0.3651    0.8851 H         1 <0>         0.1354
     22 H6         -1.0205   -0.3814    0.0098 H         1 <0>         0.1344
     23 H7          0.2017   -0.1436   -2.0240 H         1 <0>         0.4316
     24 H8          2.5729   -2.0740   -0.1410 H         1 <0>         0.0885
     25 H9          1.1248   -2.0993    0.8937 H         1 <0>         0.0944
     26 H10         1.5698   -3.5416   -0.0498 H         1 <0>         0.1114
     27 H11         0.9544   -5.1252   -5.6847 H         1 <0>         0.1423
     28 H12         2.7481   -4.8823   -7.3299 H         1 <0>         0.1494
     29 H13         4.5024   -3.1889   -7.0155 H         1 <0>         0.1506
     30 H14        -1.3028   -3.7458   -3.4275 H         1 <0>         0.0876
     31 H15        -0.3221   -5.2310   -3.4034 H         1 <0>         0.0874
     32 H16        -0.5815   -4.3113   -1.9017 H         1 <0>         0.0767
     33 H17         1.6363   -0.1286   -1.2138 H         1 <0>         0.4317
@<TRIPOS>BOND
     1    1    2 1
     2    1   18 1
     3    1   19 1
     4    1   20 1
     5    2    3 1
     6    2   21 1
     7    2   22 1
     8    3    4 1
     9    3   23 1
    10    3   33 1
    11    4    5 1
    12    4    6 1
    13    4    7 1
    14    6   24 1
    15    6   25 1
    16    6   26 1
    17    7   15 1
    18    7    8 2
    19    8    9 1
    20    8   17 1
    21    9   14 ar
    22    9   10 ar
    23   10   11 ar
    24   10   27 1
    25   11   12 ar
    26   11   28 1
    27   12   13 ar
    28   12   29 1
    29   13   14 ar
    30   13   16 1
    31   14   15 1
    32   17   30 1
    33   17   31 1
    34   17   32 1
