@<TRIPOS>MOLECULE
ZINC16528456
   56    59     0     0     0
SMALL
USER_CHARGES
4-chloro-N-[2-[(4R)-4-(2,4-dichlorophenyl)-6,7-dihydro-4H-thieno[3,2-c]pyridin-5-yl]-2-oxo-ethyl]-N-propyl-benzamide
@<TRIPOS>ATOM
      1 C1          0.4248    5.3314   -1.1419 C.3       1 <0>        -0.1545
      2 C2          0.7089    4.0617   -0.3369 C.3       1 <0>        -0.1510
      3 C3          0.4118    2.8336   -1.1997 C.3       1 <0>         0.0799
      4 N1          0.6839    1.6179   -0.4288 N.am      1 <0>        -0.5875
      5 C4          2.0664    1.2218   -0.1493 C.3       1 <0>         0.0992
      6 C5          2.5668    0.3296   -1.2558 C.2       1 <0>         0.5035
      7 O1          1.8402    0.0518   -2.1863 O.2       1 <0>        -0.5049
      8 N2          3.8218   -0.1598   -1.2114 N.am      1 <0>        -0.6049
      9 C6          4.7136    0.1753   -0.0912 C.3       1 <0>         0.1109
     10 C7          5.0173   -1.1233    0.6818 C.3       1 <0>        -0.0599
     11 C8          5.2926   -2.2128   -0.3028 C.2       1 <0>        -0.1381
     12 C9          5.0032   -2.2313   -1.6323 C.2       1 <0>        -0.1322
     13 C10         5.3614   -3.3808   -2.3348 C.2       1 <0>        -0.1438
     14 C11         5.9680   -4.4049   -1.6922 C.2       1 <0>        -0.1689
     15 S1          6.0653   -3.7839   -0.0199 S.3       1 <0>         0.0537
     16 C12         4.3203   -1.0306   -2.2846 C.3       1 <0>         0.2493
     17 H1          3.4881   -1.3694   -2.9016 H         1 <0>         0.1240
     18 C13         5.3126   -0.2779   -3.1331 C.ar      1 <0>        -0.0861
     19 C14         6.6685   -0.4783   -2.9526 C.ar      1 <0>        -0.0733
     20 C15         7.5789    0.2074   -3.7342 C.ar      1 <0>        -0.1086
     21 C16         7.1340    1.1035   -4.6902 C.ar      1 <0>        -0.0181
     22 C17         5.7777    1.3086   -4.8674 C.ar      1 <0>        -0.1070
     23 C18         4.8666    0.6177   -4.0885 C.ar      1 <0>        -0.0158
     24 Cl1         3.1641    0.8740   -4.3105 Cl        1 <0>        -0.0262
     25 Cl2         8.2779    1.9696   -5.6675 Cl        1 <0>        -0.0547
     26 C19        -0.3376    0.8638    0.0232 C.2       1 <0>         0.5686
     27 O2         -0.1118   -0.1754    0.6121 O.2       1 <0>        -0.5252
     28 C20        -1.7323    1.2972   -0.2025 C.ar      1 <0>        -0.1278
     29 C21        -2.0329    2.6550   -0.3267 C.ar      1 <0>        -0.1013
     30 C22        -3.3354    3.0530   -0.5424 C.ar      1 <0>        -0.1193
     31 C23        -4.3462    2.1095   -0.6250 C.ar      1 <0>        -0.0113
     32 C24        -4.0549    0.7615   -0.4969 C.ar      1 <0>        -0.1167
     33 C25        -2.7554    0.3509   -0.2867 C.ar      1 <0>        -0.0460
     34 Cl3        -5.9844    2.6187   -0.8907 Cl        1 <0>        -0.0598
     35 H2          0.6364    6.2063   -0.5273 H         1 <0>         0.0634
     36 H3          1.0582    5.3486   -2.0289 H         1 <0>         0.0602
     37 H4         -0.6227    5.3438   -1.4432 H         1 <0>         0.0589
     38 H5          0.0756    4.0445    0.5500 H         1 <0>         0.0733
     39 H6          1.7564    4.0493   -0.0356 H         1 <0>         0.0726
     40 H7          1.0452    2.8508   -2.0866 H         1 <0>         0.0801
     41 H8         -0.6356    2.8460   -1.5009 H         1 <0>         0.1096
     42 H9          2.6937    2.1111   -0.0878 H         1 <0>         0.1098
     43 H10         2.1057    0.6833    0.7976 H         1 <0>         0.1162
     44 H11         5.6402    0.6028   -0.4743 H         1 <0>         0.0826
     45 H12         4.2227    0.8915    0.5677 H         1 <0>         0.0974
     46 H13         4.1592   -1.3945    1.2968 H         1 <0>         0.0934
     47 H14         5.8905   -0.9756    1.3173 H         1 <0>         0.0973
     48 H15         5.1548   -3.4536   -3.3924 H         1 <0>         0.1330
     49 H16         6.3062   -5.3514   -2.0873 H         1 <0>         0.1889
     50 H17         7.0163   -1.1740   -2.2033 H         1 <0>         0.1414
     51 H18         8.6379    0.0469   -3.5961 H         1 <0>         0.1412
     52 H19         5.4300    2.0081   -5.6131 H         1 <0>         0.1446
     53 H20        -1.2462    3.3918   -0.2583 H         1 <0>         0.1626
     54 H21        -3.5685    4.1028   -0.6430 H         1 <0>         0.1414
     55 H22        -4.8472    0.0304   -0.5622 H         1 <0>         0.1424
     56 H23        -2.5294   -0.7005   -0.1877 H         1 <0>         0.1435
@<TRIPOS>BOND
     1    1    2 1
     2    1   35 1
     3    1   36 1
     4    1   37 1
     5    2    3 1
     6    2   38 1
     7    2   39 1
     8    3    4 1
     9    3   40 1
    10    3   41 1
    11    4    5 1
    12    4   26 am
    13    5    6 1
    14    5   42 1
    15    5   43 1
    16    6    7 2
    17    6    8 am
    18    8   16 1
    19    8    9 1
    20    9   10 1
    21    9   44 1
    22    9   45 1
    23   10   11 1
    24   10   46 1
    25   10   47 1
    26   11   15 1
    27   11   12 2
    28   12   13 1
    29   12   16 1
    30   13   14 2
    31   13   48 1
    32   14   15 1
    33   14   49 1
    34   16   17 1
    35   16   18 1
    36   18   23 ar
    37   18   19 ar
    38   19   20 ar
    39   19   50 1
    40   20   21 ar
    41   20   51 1
    42   21   22 ar
    43   21   25 1
    44   22   23 ar
    45   22   52 1
    46   23   24 1
    47   26   27 2
    48   26   28 1
    49   28   33 ar
    50   28   29 ar
    51   29   30 ar
    52   29   53 1
    53   30   31 ar
    54   30   54 1
    55   31   32 ar
    56   31   34 1
    57   32   33 ar
    58   32   55 1
    59   33   56 1
