@<TRIPOS>MOLECULE
ZINC27836928
   52    55     0     0     0
SMALL
USER_CHARGES
2-[(5S,7R)-3-bromo-1-adamantyl]-N-[(1S,3S)-3-(trifluoromethyl)cyclohexyl]acetamide
@<TRIPOS>ATOM
      1 C1          5.0204    8.2143    2.2628 C.3       1 <0>        -0.1124
      2 C2          6.3148    8.7453    1.6436 C.3       1 <0>        -0.1226
      3 C3          6.4337    8.2448    0.2027 C.3       1 <0>        -0.1303
      4 H1          6.4485    7.1449    0.1967 H         1 <0>         0.1114
      5 C4          5.2375    8.7431   -0.6107 C.3       1 <0>        -0.1282
      6 C5          3.9430    8.2121    0.0085 C.3       1 <0>         0.1551
      7 H2          3.0719    8.5278   -0.5844 H         1 <0>         0.0972
      8 C6          3.8241    8.7126    1.4494 C.3       1 <0>        -0.1340
      9 N1          3.9629    6.7473    0.0005 N.am      1 <0>        -0.7409
     10 C7          2.8050    6.0576    0.0078 C.2       1 <0>         0.5190
     11 O1          1.7466    6.6496    0.0211 O.2       1 <0>        -0.5282
     12 C8          2.8254    4.5507   -0.0005 C.3       1 <0>        -0.1357
     13 C9          1.3901    4.0211    0.0104 C.3       1 <0>        -0.0298
     14 C10         0.6501    4.5280   -1.2291 C.3       1 <0>        -0.1173
     15 C11        -0.7853    3.9984   -1.2183 C.3       1 <0>        -0.0814
     16 H3         -1.3173    4.3628   -2.1095 H         1 <0>         0.0761
     17 C12        -1.5015    4.4918    0.0405 C.3       1 <0>        -0.1095
     18 C13        -0.7615    3.9850    1.2800 C.3       1 <0>        -0.0814
     19 H4         -1.2764    4.3398    2.1850 H         1 <0>         0.0760
     20 C14         0.6739    4.5146    1.2692 C.3       1 <0>        -0.1165
     21 C15        -0.7407    2.4551    1.2716 C.3       1 <0>        -0.1051
     22 C16        -0.0246    1.9617    0.0128 C.3       1 <0>        -0.0005
     23 C17        -0.7646    2.4686   -1.2267 C.3       1 <0>        -0.1052
     24 C18         1.4108    2.4913    0.0020 C.3       1 <0>        -0.0995
     25 Br1         0.0021   -0.0041    0.0020 Br        1 <0>        -0.1678
     26 C19         7.7282    8.7758   -0.4165 C.3       1 <0>         0.4532
     27 F1          7.7092   10.1747   -0.4088 F         1 <0>        -0.1807
     28 F2          8.8220    8.3202    0.3272 F         1 <0>        -0.1823
     29 F3          7.8369    8.3182   -1.7340 F         1 <0>        -0.1830
     30 H5          4.9349    8.5742    3.2987 H         1 <0>         0.0728
     31 H6          5.0353    7.1144    2.2568 H         1 <0>         0.0667
     32 H7          6.2999    9.8452    1.6497 H         1 <0>         0.0802
     33 H8          7.1749    8.3871    2.2283 H         1 <0>         0.0792
     34 H9          5.2226    9.8430   -0.6047 H         1 <0>         0.0940
     35 H10         5.3230    8.3832   -1.6466 H         1 <0>         0.0851
     36 H11         2.8935    8.3308    1.8945 H         1 <0>         0.0742
     37 H12         3.8091    9.8125    1.4554 H         1 <0>         0.0751
     38 H13         4.9229    6.2103   -0.0115 H         1 <0>         0.4138
     39 H14         3.3402    4.1960   -0.9055 H         1 <0>         0.0947
     40 H15         3.3575    4.1863    0.8906 H         1 <0>         0.0945
     41 H16         0.6352    5.6279   -1.2230 H         1 <0>         0.0976
     42 H17         1.1650    4.1734   -2.1342 H         1 <0>         0.0548
     43 H18        -1.5165    5.5917    0.0465 H         1 <0>         0.0698
     44 H19        -2.5335    4.1110    0.0483 H         1 <0>         0.0611
     45 H20         1.2059    4.1502    2.1604 H         1 <0>         0.0545
     46 H21         0.6590    5.6145    1.2752 H         1 <0>         0.0976
     47 H22        -0.2086    2.0908    2.1628 H         1 <0>         0.0725
     48 H23        -1.7727    2.0743    1.2795 H         1 <0>         0.0730
     49 H24        -1.7966    2.0879   -1.2189 H         1 <0>         0.0730
     50 H25        -0.2498    2.1138   -2.1317 H         1 <0>         0.0726
     51 H26         1.9257    2.1366   -0.9030 H         1 <0>         0.0739
     52 H27         1.9428    2.1269    0.8932 H         1 <0>         0.0738
@<TRIPOS>BOND
     1    1    8 1
     2    1    2 1
     3    1   30 1
     4    1   31 1
     5    2    3 1
     6    2   32 1
     7    2   33 1
     8    3    4 1
     9    3    5 1
    10    3   26 1
    11    5    6 1
    12    5   34 1
    13    5   35 1
    14    6    7 1
    15    6    8 1
    16    6    9 1
    17    8   36 1
    18    8   37 1
    19    9   10 am
    20    9   38 1
    21   10   11 2
    22   10   12 1
    23   12   13 1
    24   12   39 1
    25   12   40 1
    26   13   20 1
    27   13   24 1
    28   13   14 1
    29   14   15 1
    30   14   41 1
    31   14   42 1
    32   15   16 1
    33   15   23 1
    34   15   17 1
    35   17   18 1
    36   17   43 1
    37   17   44 1
    38   18   19 1
    39   18   20 1
    40   18   21 1
    41   20   45 1
    42   20   46 1
    43   21   22 1
    44   21   47 1
    45   21   48 1
    46   22   23 1
    47   22   24 1
    48   22   25 1
    49   23   49 1
    50   23   50 1
    51   24   51 1
    52   24   52 1
    53   26   27 1
    54   26   28 1
    55   26   29 1
