@<TRIPOS>MOLECULE
ZINC08407313
   50    54     0     0     0
SMALL
USER_CHARGES
4-(4-ethylphenyl)-2-[5-(4-fluorophenyl)-3-(2-thienyl)-4,5-dihydropyrazol-1-yl]-thiazole
@<TRIPOS>ATOM
      1 C1         -0.0127    1.0858    0.0080 C.3       1 <0>        -0.1473
      2 C2         -0.7288    1.5792    1.2668 C.3       1 <0>        -0.0875
      3 C3         -0.7493    3.0861    1.2751 C.ar      1 <0>        -0.0738
      4 C4          0.2829    3.7859    1.8738 C.ar      1 <0>        -0.1204
      5 C5          0.2719    5.1658    1.8802 C.ar      1 <0>        -0.0983
      6 C6         -0.7871    5.8544    1.2907 C.ar      1 <0>        -0.0330
      7 C7         -1.8270    5.1439    0.6936 C.ar      1 <0>        -0.0780
      8 C8         -1.8030    3.7641    0.6890 C.ar      1 <0>        -0.1224
      9 C9         -0.8069    7.3373    1.2985 C.2       1 <0>         0.1393
     10 C10         0.2084    8.0376    1.8875 C.2       1 <0>        -0.2339
     11 S1         -0.3340    9.7165    1.5971 S.3       1 <0>         0.0274
     12 C11        -1.8483    9.3162    0.7360 C.2       1 <0>         0.4030
     13 N1         -1.8117    7.9953    0.7393 N.2       1 <0>        -0.5378
     14 N2         -2.8051   10.1644    0.2065 N.pl3     1 <0>        -0.4135
     15 C12        -2.7660   11.6345    0.2548 C.3       1 <0>         0.1639
     16 H1         -2.7754   11.9846    1.2870 H         1 <0>         0.1117
     17 C13        -4.0566   12.0560   -0.4751 C.3       1 <0>        -0.1208
     18 C14        -4.7041   10.7445   -0.8581 C.2       1 <0>         0.1628
     19 N3         -3.9653    9.7654   -0.4538 N.2       1 <0>        -0.1953
     20 C15        -5.9750   10.6056   -1.5775 C.2       1 <0>        -0.1159
     21 C16        -6.6337    9.4538   -1.9706 C.2       1 <0>        -0.1025
     22 C17        -7.8306    9.5808   -2.6379 C.2       1 <0>        -0.1621
     23 C18        -8.3183   10.8212   -2.8982 C.2       1 <0>        -0.1577
     24 S2         -7.0717   11.8785   -2.1813 S.3       1 <0>         0.0956
     25 C19        -1.5539   12.1567   -0.4726 C.ar      1 <0>        -0.1281
     26 C20        -1.1320   11.5461   -1.6389 C.ar      1 <0>        -0.0646
     27 C21        -0.0239   12.0276   -2.3099 C.ar      1 <0>        -0.1495
     28 C22         0.6702   13.1153   -1.8077 C.ar      1 <0>         0.1136
     29 C23         0.2501   13.7226   -0.6364 C.ar      1 <0>        -0.1498
     30 C24        -0.8613   13.2425    0.0300 C.ar      1 <0>        -0.0661
     31 F1          1.7569   13.5835   -2.4598 F         1 <0>        -0.1347
     32 H2          0.0021   -0.0041    0.0020 H         1 <0>         0.0586
     33 H3          1.0099    1.4631    0.0003 H         1 <0>         0.0559
     34 H4         -0.5399    1.4469   -0.8751 H         1 <0>         0.0558
     35 H5         -1.7514    1.2020    1.2746 H         1 <0>         0.0723
     36 H6         -0.2017    1.2182    2.1499 H         1 <0>         0.0724
     37 H7          1.1009    3.2513    2.3338 H         1 <0>         0.1248
     38 H8          1.0804    5.7112    2.3442 H         1 <0>         0.1246
     39 H9         -2.6499    5.6722    0.2351 H         1 <0>         0.1327
     40 H10        -2.6083    3.2126    0.2266 H         1 <0>         0.1231
     41 H11         1.0943    7.6766    2.3889 H         1 <0>         0.1997
     42 H12        -3.8231   12.6411   -1.3646 H         1 <0>         0.1150
     43 H13        -4.7041   12.6205    0.1958 H         1 <0>         0.1162
     44 H14        -6.2205    8.4794   -1.7558 H         1 <0>         0.1431
     45 H15        -8.3738    8.7032   -2.9559 H         1 <0>         0.1416
     46 H16        -9.2288   11.0976   -3.4090 H         1 <0>         0.1925
     47 H17        -1.6710   10.6950   -2.0281 H         1 <0>         0.1275
     48 H18         0.3027   11.5534   -3.2236 H         1 <0>         0.1389
     49 H19         0.7906   14.5713   -0.2440 H         1 <0>         0.1422
     50 H20        -1.1892   13.7160    0.9436 H         1 <0>         0.1389
@<TRIPOS>BOND
     1    1    2 1
     2    1   32 1
     3    1   33 1
     4    1   34 1
     5    2    3 1
     6    2   35 1
     7    2   36 1
     8    3    8 ar
     9    3    4 ar
    10    4    5 ar
    11    4   37 1
    12    5    6 ar
    13    5   38 1
    14    6    7 ar
    15    6    9 1
    16    7    8 ar
    17    7   39 1
    18    8   40 1
    19    9   13 1
    20    9   10 2
    21   10   11 1
    22   10   41 1
    23   11   12 1
    24   12   13 2
    25   12   14 1
    26   14   19 1
    27   14   15 1
    28   15   16 1
    29   15   17 1
    30   15   25 1
    31   17   18 1
    32   17   42 1
    33   17   43 1
    34   18   19 2
    35   18   20 1
    36   20   24 1
    37   20   21 2
    38   21   22 1
    39   21   44 1
    40   22   23 2
    41   22   45 1
    42   23   24 1
    43   23   46 1
    44   25   30 ar
    45   25   26 ar
    46   26   27 ar
    47   26   47 1
    48   27   28 ar
    49   27   48 1
    50   28   29 ar
    51   28   31 1
    52   29   30 ar
    53   29   49 1
    54   30   50 1
