@<TRIPOS>MOLECULE
ZINC41036440
   43    45     0     0     0
SMALL
USER_CHARGES

@<TRIPOS>ATOM
      1 C1         -0.0187    1.5258    0.0104 C.3       1 <0>        -0.1484
      2 C2          0.0021   -0.0041    0.0020 C.3       1 <0>        -0.0883
      3 H1          0.5122   -0.3558   -0.8947 H         1 <0>         0.0720
      4 C3         -1.4333   -0.5339    0.0135 C.3       1 <0>        -0.1202
      5 C4         -1.4149   -2.0637   -0.0047 C.3       1 <0>        -0.1170
      6 C5         -0.6803   -2.5786    1.2359 C.3       1 <0>        -0.1140
      7 C6          0.7447   -2.0362    1.2460 C.3       1 <0>         0.1258
      8 C7          0.7420   -0.5115    1.2425 C.3       1 <0>        -0.1091
      9 C8          1.5004   -2.5600    2.4454 C.2       1 <0>         0.5301
     10 O1          1.2352   -2.3822    3.6149 O.2       1 <0>        -0.4621
     11 N1          2.5319   -3.2679    1.9402 N.am      1 <0>        -0.5739
     12 C9          2.5267   -3.2599    0.6016 C.2       1 <0>         0.7026
     13 O2          3.3563   -3.8283   -0.0810 O.2       1 <0>        -0.5363
     14 N2          1.4990   -2.5513    0.0961 N.am      1 <0>        -0.7177
     15 C10         3.5335   -3.9595    2.7555 C.3       1 <0>         0.1506
     16 C11         4.9218   -3.3972    2.4435 C.3       1 <0>        -0.1335
     17 C12         5.9678   -4.1195    3.2950 C.3       1 <0>        -0.1143
     18 C13         5.9401   -5.6156    2.9762 C.3       1 <0>        -0.1235
     19 C14         4.5518   -6.1780    3.2882 C.3       1 <0>        -0.1143
     20 C15         3.5058   -5.4557    2.4367 C.3       1 <0>        -0.1335
     21 H2          1.0039    1.9031    0.0027 H         1 <0>         0.0565
     22 H3         -0.5459    1.8868   -0.8726 H         1 <0>         0.0597
     23 H4         -0.5289    1.8773    0.9072 H         1 <0>         0.0583
     24 H5         -1.9409   -0.1876    0.9137 H         1 <0>         0.0693
     25 H6         -1.9628   -0.1668   -0.8657 H         1 <0>         0.0699
     26 H7         -2.4380   -2.4395   -0.0034 H         1 <0>         0.0756
     27 H8         -0.9012   -2.4104   -0.9013 H         1 <0>         0.0646
     28 H9         -1.2026   -2.2441    2.1322 H         1 <0>         0.0902
     29 H10        -0.6541   -3.6681    1.2163 H         1 <0>         0.0742
     30 H11         1.7689   -0.1463    1.2276 H         1 <0>         0.0743
     31 H12         0.2402   -0.1473    2.1390 H         1 <0>         0.0903
     32 H13         1.2970   -2.4093   -0.8419 H         1 <0>         0.4385
     33 H14         3.3094   -3.8088    3.8115 H         1 <0>         0.1043
     34 H15         5.1459   -3.5479    1.3875 H         1 <0>         0.0847
     35 H16         4.9415   -2.3313    2.6706 H         1 <0>         0.0642
     36 H17         6.9568   -3.7188    3.0727 H         1 <0>         0.0697
     37 H18         5.7437   -3.9688    4.3510 H         1 <0>         0.0646
     38 H19         6.1642   -5.7663    1.9202 H         1 <0>         0.0663
     39 H20         6.6853   -6.1302    3.5828 H         1 <0>         0.0662
     40 H21         4.5321   -7.2439    3.0611 H         1 <0>         0.0697
     41 H22         4.3277   -6.0273    4.3443 H         1 <0>         0.0646
     42 H23         2.5168   -5.8563    2.6590 H         1 <0>         0.0642
     43 H24         3.7299   -5.6064    1.3807 H         1 <0>         0.0847
@<TRIPOS>BOND
     1    1    2 1
     2    1   21 1
     3    1   22 1
     4    1   23 1
     5    2    3 1
     6    2    8 1
     7    2    4 1
     8    4    5 1
     9    4   24 1
    10    4   25 1
    11    5    6 1
    12    5   26 1
    13    5   27 1
    14    6    7 1
    15    6   28 1
    16    6   29 1
    17    7   14 1
    18    7    8 1
    19    7    9 1
    20    8   30 1
    21    8   31 1
    22    9   10 2
    23    9   11 am
    24   11   12 am
    25   11   15 1
    26   12   13 2
    27   12   14 am
    28   14   32 1
    29   15   20 1
    30   15   16 1
    31   15   33 1
    32   16   17 1
    33   16   34 1
    34   16   35 1
    35   17   18 1
    36   17   36 1
    37   17   37 1
    38   18   19 1
    39   18   38 1
    40   18   39 1
    41   19   20 1
    42   19   40 1
    43   19   41 1
    44   20   42 1
    45   20   43 1
