@<TRIPOS>MOLECULE
ZINC43633004
   62    65     0     0     0
SMALL
USER_CHARGES

@<TRIPOS>ATOM
      1 C1          0.4735    1.4112    0.0750 C.3       1 <0>        -0.1298
      2 C2          0.1448   -0.0595    0.0824 C.2       1 <0>        -0.2030
      3 C3         -0.0041   -0.6996    1.2337 C.2       1 <0>        -0.0262
      4 C4         -0.0057    0.0555    2.5044 C.ar      1 <0>        -0.0964
      5 C5         -0.5438    1.3420    2.5542 C.ar      1 <0>        -0.1041
      6 C6         -0.5422    2.0416    3.7434 C.ar      1 <0>        -0.1232
      7 C7         -0.0082    1.4704    4.8847 C.ar      1 <0>        -0.0958
      8 C8          0.5273    0.1956    4.8418 C.ar      1 <0>        -0.1186
      9 C9          0.5258   -0.5172    3.6604 C.ar      1 <0>        -0.0916
     10 C10        -0.0147   -0.8025   -1.2190 C.3       1 <0>         0.0402
     11 N1         -1.3955   -0.6583   -1.6991 N.4       1 <0>        -0.3775
     12 C11        -1.6441    0.7436   -2.0588 C.3       1 <0>        -0.0178
     13 C12        -3.1099    0.9108   -2.4643 C.3       1 <0>        -0.1600
     14 C13        -3.4166    0.0100   -3.6595 C.3       1 <0>         0.1356
     15 H1         -4.4843    0.0634   -3.8723 H         1 <0>         0.1023
     16 C14        -3.0545   -1.4376   -3.3308 C.3       1 <0>        -0.1162
     17 H2         -3.7166   -1.8143   -2.5512 H         1 <0>         0.1204
     18 C15        -1.5952   -1.5120   -2.8754 C.3       1 <0>        -0.0122
     19 C16        -3.2195   -2.2809   -4.6024 C.3       1 <0>        -0.1168
     20 C17        -2.1535   -1.8467   -5.6113 C.3       1 <0>        -0.1476
     21 C18        -2.1468   -0.3504   -5.7392 C.2       1 <0>         0.5073
     22 O1         -1.6097    0.1412   -6.7092 O.2       1 <0>        -0.5187
     23 N2         -2.6839    0.4535   -4.8357 N.am      1 <0>        -0.6036
     24 C19        -2.5441    1.8951   -5.0564 C.3       1 <0>         0.0992
     25 C20        -3.7883    2.4245   -5.7723 C.3       1 <0>        -0.0899
     26 C21        -3.5935    3.8808   -6.1074 C.ar      1 <0>        -0.1274
     27 C22        -4.0684    4.8567   -5.2514 C.ar      1 <0>        -0.0898
     28 C23        -3.8900    6.1925   -5.5585 C.ar      1 <0>        -0.1281
     29 C24        -3.2363    6.5541   -6.7220 C.ar      1 <0>        -0.0863
     30 C25        -2.7603    5.5803   -7.5789 C.ar      1 <0>        -0.1510
     31 C26        -2.9339    4.2417   -7.2697 C.ar      1 <0>         0.1057
     32 F1         -2.4648    3.2887   -8.1045 F         1 <0>        -0.1307
     33 H3          1.0385    1.6617    0.9729 H         1 <0>         0.0892
     34 H4          1.0698    1.6458   -0.8068 H         1 <0>         0.0712
     35 H5         -0.4500    1.9898    0.0536 H         1 <0>         0.0728
     36 H6         -0.1242   -1.7729    1.2432 H         1 <0>         0.1315
     37 H7         -0.9604    1.7892    1.6637 H         1 <0>         0.1287
     38 H8         -0.9584    3.0374    3.7833 H         1 <0>         0.1293
     39 H9         -0.0090    2.0224    5.8130 H         1 <0>         0.1300
     40 H10         0.9433   -0.2445    5.7361 H         1 <0>         0.1311
     41 H11         0.9394   -1.5144    3.6295 H         1 <0>         0.1279
     42 H12         0.6720   -0.3911   -1.9587 H         1 <0>         0.1338
     43 H13         0.2077   -1.8583   -1.0642 H         1 <0>         0.1348
     44 H14        -1.4285    1.3825   -1.2024 H         1 <0>         0.1398
     45 H15        -1.0015    1.0244   -2.8933 H         1 <0>         0.1281
     46 H16        -3.7517    0.6348   -1.6277 H         1 <0>         0.1080
     47 H17        -3.2951    1.9500   -2.7360 H         1 <0>         0.1234
     48 H18        -0.9462   -1.1733   -3.6830 H         1 <0>         0.1289
     49 H19        -1.3473   -2.5425   -2.6212 H         1 <0>         0.1384
     50 H20        -3.0896   -3.3362   -4.3625 H         1 <0>         0.0950
     51 H21        -4.2115   -2.1192   -5.0241 H         1 <0>         0.0940
     52 H22        -1.1747   -2.1851   -5.2715 H         1 <0>         0.1014
     53 H23        -2.3715   -2.2918   -6.5821 H         1 <0>         0.1153
     54 H24        -2.4343    2.4005   -4.0969 H         1 <0>         0.0818
     55 H25        -1.6634    2.0849   -5.6700 H         1 <0>         0.0990
     56 H26        -3.9477    1.8586   -6.6902 H         1 <0>         0.0825
     57 H27        -4.6561    2.3142   -5.1221 H         1 <0>         0.0781
     58 H28        -4.5795    4.5753   -4.3425 H         1 <0>         0.1297
     59 H29        -4.2617    6.9543   -4.8893 H         1 <0>         0.1321
     60 H30        -3.0980    7.5982   -6.9612 H         1 <0>         0.1360
     61 H31        -2.2500    5.8631   -8.4878 H         1 <0>         0.1384
     62 H32        -2.0354   -0.9360   -0.9700 H         1 <0>         0.4215
@<TRIPOS>BOND
     1    1    2 1
     2    1   33 1
     3    1   34 1
     4    1   35 1
     5    2    3 2
     6    2   10 1
     7    3    4 1
     8    3   36 1
     9    4    9 ar
    10    4    5 ar
    11    5    6 ar
    12    5   37 1
    13    6    7 ar
    14    6   38 1
    15    7    8 ar
    16    7   39 1
    17    8    9 ar
    18    8   40 1
    19    9   41 1
    20   10   11 1
    21   10   42 1
    22   10   43 1
    23   11   18 1
    24   11   12 1
    25   11   62 1
    26   12   13 1
    27   12   44 1
    28   12   45 1
    29   13   14 1
    30   13   46 1
    31   13   47 1
    32   14   15 1
    33   14   23 1
    34   14   16 1
    35   16   17 1
    36   16   18 1
    37   16   19 1
    38   18   48 1
    39   18   49 1
    40   19   20 1
    41   19   50 1
    42   19   51 1
    43   20   21 1
    44   20   52 1
    45   20   53 1
    46   21   22 2
    47   21   23 am
    48   23   24 1
    49   24   25 1
    50   24   54 1
    51   24   55 1
    52   25   26 1
    53   25   56 1
    54   25   57 1
    55   26   31 ar
    56   26   27 ar
    57   27   28 ar
    58   27   58 1
    59   28   29 ar
    60   28   59 1
    61   29   30 ar
    62   29   60 1
    63   30   31 ar
    64   30   61 1
    65   31   32 1
