@<TRIPOS>MOLECULE
ZINC63836867
   33    35     0     0     0
SMALL
USER_CHARGES

@<TRIPOS>ATOM
      1 C1         -0.0187    1.5258    0.0104 C.3       1 <0>        -0.1382
      2 C2          0.0021   -0.0041    0.0020 C.3       1 <0>        -0.0776
      3 C3          0.7309   -0.5033    1.2229 C.2       1 <0>        -0.0586
      4 C4          2.0581   -0.7063    1.1861 C.2       1 <0>        -0.1555
      5 S1          2.4342   -1.2811    2.8312 S.3       1 <0>         0.1520
      6 C5          0.7995   -1.2321    3.5201 C.2       1 <0>         0.0989
      7 C6          0.0081   -0.7644    2.4533 C.2       1 <0>        -0.2340
      8 C7         -1.3902   -0.6190    2.7316 C.2       1 <0>         0.5594
      9 O1         -2.1544   -0.2249    1.8678 O.2       1 <0>        -0.5122
     10 N1         -1.8478   -0.9239    3.9600 N.am      1 <0>        -0.6326
     11 H1         -2.7934   -0.8272    4.1535 H         1 <0>         0.4203
     12 C8         -1.0040   -1.3681    4.9401 C.2       1 <0>         0.4471
     13 N2          0.2824   -1.5198    4.7071 N.2       1 <0>        -0.4697
     14 C9         -1.5458   -1.6930    6.2758 C.ar      1 <0>        -0.0106
     15 C10        -2.9108   -1.5521    6.5314 C.ar      1 <0>        -0.1394
     16 C11        -3.4120   -1.8578    7.7824 C.ar      1 <0>         0.1386
     17 C12        -2.5625   -2.3034    8.7820 C.ar      1 <0>        -0.1622
     18 C13        -1.2068   -2.4446    8.5341 C.ar      1 <0>         0.1353
     19 C14        -0.6953   -2.1474    7.2853 C.ar      1 <0>        -0.0990
     20 F1         -0.3840   -2.8792    9.5137 F         1 <0>        -0.1192
     21 F2         -4.7329   -1.7216    8.0313 F         1 <0>        -0.1202
     22 C15         3.0029   -0.4987    0.0305 C.3       1 <0>        -0.0696
     23 H2          1.0039    1.9031    0.0027 H         1 <0>         0.0524
     24 H3         -0.5459    1.8868   -0.8726 H         1 <0>         0.0601
     25 H4         -0.5289    1.8773    0.9072 H         1 <0>         0.0529
     26 H5         -1.0205   -0.3814    0.0098 H         1 <0>         0.0882
     27 H6          0.5123   -0.3556   -0.8948 H         1 <0>         0.0735
     28 H7         -3.5740   -1.2045    5.7530 H         1 <0>         0.1472
     29 H8         -2.9585   -2.5411    9.7582 H         1 <0>         0.1597
     30 H9          0.3610   -2.2621    7.0918 H         1 <0>         0.1661
     31 H10         3.3874    0.5209    0.0542 H         1 <0>         0.0830
     32 H11         3.8322   -1.2017    0.1085 H         1 <0>         0.0774
     33 H12         2.4724   -0.6653   -0.9070 H         1 <0>         0.0864
@<TRIPOS>BOND
     1    1    2 1
     2    1   23 1
     3    1   24 1
     4    1   25 1
     5    2    3 1
     6    2   26 1
     7    2   27 1
     8    3    7 1
     9    3    4 2
    10    4    5 1
    11    4   22 1
    12    5    6 1
    13    6   13 1
    14    6    7 2
    15    7    8 1
    16    8    9 2
    17    8   10 am
    18   10   11 1
    19   10   12 1
    20   12   13 2
    21   12   14 1
    22   14   19 ar
    23   14   15 ar
    24   15   16 ar
    25   15   28 1
    26   16   17 ar
    27   16   21 1
    28   17   18 ar
    29   17   29 1
    30   18   19 ar
    31   18   20 1
    32   19   30 1
    33   22   31 1
    34   22   32 1
    35   22   33 1
