@<TRIPOS>MOLECULE
ZINC02569146
   35    37     0     0     0
SMALL
USER_CHARGES
4-isopropyl-5-(4,5,6,7-tetrahydrobenzothiophen-3-yl)-1,2,4-triazole-3-thiol
@<TRIPOS>ATOM
      1 C1          2.8069   -0.5123   -3.0101 C.3       1 <0>        -0.1726
      2 C2          2.1381   -0.4918   -1.6342 C.3       1 <0>         0.1252
      3 C3          2.1008   -1.9111   -1.0641 C.3       1 <0>        -0.1734
      4 N1          2.9005    0.3764   -0.7335 N.pl3     1 <0>        -0.4482
      5 C4          2.4482    1.4992   -0.0807 C.2       1 <0>         0.2553
      6 N2          3.4561    1.9726    0.6145 N.2       1 <0>        -0.2706
      7 N3          4.4909    1.2285    0.4503 N.2       1 <0>        -0.2359
      8 C5          4.2109    0.2396   -0.3662 C.2       1 <0>         0.1469
      9 S1          5.3170   -1.0274   -0.8914 S.3       1 <0>        -0.0032
     10 C6          1.0858    2.0690   -0.1532 C.2       1 <0>        -0.0429
     11 C7         -0.0068    1.2625   -0.0062 C.2       1 <0>        -0.1656
     12 S2         -1.3501    2.4262   -0.1826 S.3       1 <0>         0.0871
     13 C8         -0.3775    3.8882   -0.4257 C.2       1 <0>        -0.1435
     14 C9          0.9041    3.4454   -0.3735 C.2       1 <0>        -0.0933
     15 C10         2.0650    4.4202   -0.5497 C.3       1 <0>        -0.0535
     16 C11         1.5437    5.6927   -1.2184 C.3       1 <0>        -0.1219
     17 C12         0.3429    6.2382   -0.4401 C.3       1 <0>        -0.1149
     18 C13        -0.8483    5.2903   -0.6447 C.3       1 <0>        -0.0417
     19 H1          3.8241   -0.8921   -2.9140 H         1 <0>         0.0715
     20 H2          2.2397   -1.1582   -3.6802 H         1 <0>         0.0883
     21 H3          2.8335    0.4989   -3.4163 H         1 <0>         0.0620
     22 H4          1.1210   -0.1120   -1.7302 H         1 <0>         0.1086
     23 H5          1.6244   -1.8966   -0.0838 H         1 <0>         0.0638
     24 H6          1.5336   -2.5571   -1.7342 H         1 <0>         0.0853
     25 H7          3.1180   -2.2909   -0.9680 H         1 <0>         0.0858
     26 H8          5.8552   -0.4200   -2.0445 H         1 <0>         0.1041
     27 H9         -0.0478    0.1973    0.1670 H         1 <0>         0.1888
     28 H10         2.4866    4.6662    0.4249 H         1 <0>         0.0872
     29 H11         2.8316    3.9656   -1.1772 H         1 <0>         0.0673
     30 H12         2.3346    6.4425   -1.2356 H         1 <0>         0.0716
     31 H13         1.2381    5.4656   -2.2397 H         1 <0>         0.0636
     32 H14         0.5888    6.2927    0.6205 H         1 <0>         0.0712
     33 H15         0.0896    7.2323   -0.8082 H         1 <0>         0.0760
     34 H16        -1.6351    5.5295    0.0708 H         1 <0>         0.0854
     35 H17        -1.2310    5.3954   -1.6599 H         1 <0>         0.0862
@<TRIPOS>BOND
     1    1    2 1
     2    1   19 1
     3    1   20 1
     4    1   21 1
     5    2    3 1
     6    2    4 1
     7    2   22 1
     8    3   23 1
     9    3   24 1
    10    3   25 1
    11    4    8 1
    12    4    5 1
    13    5    6 2
    14    5   10 1
    15    6    7 1
    16    7    8 2
    17    8    9 1
    18    9   26 1
    19   10   14 1
    20   10   11 2
    21   11   12 1
    22   11   27 1
    23   12   13 1
    24   13   18 1
    25   13   14 2
    26   14   15 1
    27   15   16 1
    28   15   28 1
    29   15   29 1
    30   16   17 1
    31   16   30 1
    32   16   31 1
    33   17   18 1
    34   17   32 1
    35   17   33 1
    36   18   34 1
    37   18   35 1
