@<TRIPOS>MOLECULE
ZINC37365638
   32    34     0     0     0
SMALL
USER_CHARGES

@<TRIPOS>ATOM
      1 C1          0.0546    1.4406   -0.0051 C.3       1 <0>         0.0268
      2 O1          0.0227    0.0122   -0.0318 O.3       1 <0>        -0.3151
      3 C2          0.7003   -0.6017   -1.0382 C.ar      1 <0>         0.1148
      4 C3          1.3873    0.1606   -1.9783 C.ar      1 <0>        -0.1807
      5 C4          2.0778   -0.4469   -3.0036 C.ar      1 <0>        -0.0795
      6 C5          2.0926   -1.8341   -3.1063 C.ar      1 <0>         0.0481
      7 C6          1.4004   -2.6037   -2.1584 C.ar      1 <0>        -0.0213
      8 C7          0.7095   -1.9814   -1.1217 C.ar      1 <0>        -0.1114
      9 C8          1.6134   -4.0105   -2.5465 C.2       1 <0>        -0.2613
     10 C9          2.3952   -3.9885   -3.6668 C.2       1 <0>         0.1475
     11 N1          2.6802   -2.7082   -4.0006 N.pl3     1 <0>        -0.5697
     12 H1          3.2207   -2.4418   -4.7607 H         1 <0>         0.4230
     13 C10         1.0897   -5.1993   -1.8637 C.2       1 <0>         0.4707
     14 O2          0.4816   -5.0810   -0.8161 O.2       1 <0>        -0.4359
     15 C11         1.3007   -6.5400   -2.4481 C.ar      1 <0>        -0.1169
     16 C12         2.2562   -7.4006   -1.9027 C.ar      1 <0>        -0.0672
     17 C13         2.4484   -8.6499   -2.4523 C.ar      1 <0>        -0.0848
     18 C14         1.6966   -9.0538   -3.5438 C.ar      1 <0>        -0.0707
     19 C15         0.7483   -8.2067   -4.0902 C.ar      1 <0>        -0.0827
     20 C16         0.5412   -6.9548   -3.5455 C.ar      1 <0>        -0.0082
     21 Cl1        -0.6544   -5.8962   -4.2264 Cl        1 <0>        -0.0397
     22 Br1         1.9679  -10.7697   -4.2906 Br        1 <0>        -0.0277
     23 H2          1.0865    1.7793    0.0873 H         1 <0>         0.0552
     24 H3         -0.3746    1.8309   -0.9279 H         1 <0>         0.0552
     25 H4         -0.5237    1.8011    0.8456 H         1 <0>         0.1009
     26 H5          1.3787    1.2380   -1.9034 H         1 <0>         0.1355
     27 H6          2.6074    0.1539   -3.7282 H         1 <0>         0.1283
     28 H7          0.1801   -2.5733   -0.3897 H         1 <0>         0.1405
     29 H8          2.7346   -4.8612   -4.2049 H         1 <0>         0.1805
     30 H9          2.8435   -7.0875   -1.0521 H         1 <0>         0.1483
     31 H10         3.1873   -9.3157   -2.0313 H         1 <0>         0.1475
     32 H11         0.1657   -8.5273   -4.9413 H         1 <0>         0.1502
@<TRIPOS>BOND
     1    1    2 1
     2    1   23 1
     3    1   24 1
     4    1   25 1
     5    2    3 1
     6    3    8 ar
     7    3    4 ar
     8    4    5 ar
     9    4   26 1
    10    5    6 ar
    11    5   27 1
    12    6   11 1
    13    6    7 ar
    14    7    8 ar
    15    7    9 1
    16    8   28 1
    17    9   10 2
    18    9   13 1
    19   10   11 1
    20   10   29 1
    21   11   12 1
    22   13   14 2
    23   13   15 1
    24   15   20 ar
    25   15   16 ar
    26   16   17 ar
    27   16   30 1
    28   17   18 ar
    29   17   31 1
    30   18   19 ar
    31   18   22 1
    32   19   20 ar
    33   19   32 1
    34   20   21 1
