@<TRIPOS>MOLECULE
ZINC21275302
   52    55     0     0     0
SMALL
USER_CHARGES
2-[2-(o-tolylamino)-2-oxo-ethyl]-N,4-diphenyl-thiazole-5-carboxamide
@<TRIPOS>ATOM
      1 C1         11.1152   -7.7523    1.1617 C.3       1 <0>        -0.1164
      2 C2         11.1270   -6.7550    2.2915 C.ar      1 <0>        -0.1175
      3 C3         11.5648   -7.1357    3.5451 C.ar      1 <0>        -0.1002
      4 C4         11.5769   -6.2211    4.5819 C.ar      1 <0>        -0.1341
      5 C5         11.1505   -4.9229    4.3679 C.ar      1 <0>        -0.1036
      6 C6         10.7166   -4.5347    3.1157 C.ar      1 <0>        -0.1295
      7 C7         10.6983   -5.4525    2.0733 C.ar      1 <0>         0.1505
      8 N1         10.2542   -5.0637    0.8046 N.am      1 <0>        -0.6773
      9 C8          9.4050   -4.0250    0.6770 C.2       1 <0>         0.5198
     10 O1          8.9450   -3.4927    1.6650 O.2       1 <0>        -0.5054
     11 C9          9.0269   -3.5249   -0.6934 C.3       1 <0>        -0.0586
     12 C10         8.0729   -2.3660   -0.5597 C.2       1 <0>         0.1275
     13 N2          8.3484   -1.0851   -0.4684 N.2       1 <0>        -0.4907
     14 C11         7.4007   -0.1770   -0.3617 C.2       1 <0>         0.1974
     15 C12         6.0782   -0.6331   -0.3364 C.2       1 <0>        -0.2580
     16 S1          6.3386   -2.3945   -0.4889 S.3       1 <0>         0.1146
     17 C13         4.8296    0.1222   -0.2231 C.2       1 <0>         0.6106
     18 O2          4.8519    1.3393   -0.2271 O.2       1 <0>        -0.4905
     19 N3          3.6551   -0.5299   -0.1142 N.am      1 <0>        -0.6788
     20 C14         2.4552    0.1879   -0.1052 C.ar      1 <0>         0.1477
     21 C15         1.3198   -0.3468   -0.7005 C.ar      1 <0>        -0.1441
     22 C16         0.1361    0.3646   -0.6895 C.ar      1 <0>        -0.1014
     23 C17         0.0805    1.6080   -0.0869 C.ar      1 <0>        -0.1334
     24 C18         1.2090    2.1432    0.5068 C.ar      1 <0>        -0.1010
     25 C19         2.3958    1.4369    0.4996 C.ar      1 <0>        -0.1208
     26 C20         7.7214    1.2660   -0.2678 C.ar      1 <0>        -0.0430
     27 C21         8.6684    1.8298   -1.1226 C.ar      1 <0>        -0.0789
     28 C22         8.9587    3.1759   -1.0342 C.ar      1 <0>        -0.1317
     29 C23         8.3209    3.9635   -0.0925 C.ar      1 <0>        -0.1018
     30 C24         7.3848    3.4089    0.7620 C.ar      1 <0>        -0.1259
     31 C25         7.0818    2.0653    0.6795 C.ar      1 <0>        -0.0482
     32 H1         11.4869   -8.7219    1.5246 H         1 <0>         0.0721
     33 H2         11.7625   -7.3926    0.3483 H         1 <0>         0.0679
     34 H3         10.0875   -7.8703    0.7875 H         1 <0>         0.0689
     35 H4         11.8984   -8.1486    3.7154 H         1 <0>         0.1258
     36 H5         11.9203   -6.5210    5.5610 H         1 <0>         0.1232
     37 H6         11.1615   -4.2108    5.1797 H         1 <0>         0.1245
     38 H7         10.3880   -3.5197    2.9481 H         1 <0>         0.1433
     39 H8         10.5982   -5.6058   -0.0886 H         1 <0>         0.4360
     40 H9          9.9313   -3.1957   -1.2260 H         1 <0>         0.1411
     41 H10         8.5429   -4.3349   -1.2587 H         1 <0>         0.1322
     42 H11         3.6405   -1.6268   -0.0324 H         1 <0>         0.4315
     43 H12         1.3628   -1.3175   -1.1719 H         1 <0>         0.1251
     44 H13        -0.7470   -0.0505   -1.1522 H         1 <0>         0.1267
     45 H14        -0.8451    2.1644   -0.0839 H         1 <0>         0.1237
     46 H15         1.1624    3.1147    0.9762 H         1 <0>         0.1262
     47 H16         3.2769    1.8555    0.9631 H         1 <0>         0.1390
     48 H17         9.1702    1.2150   -1.8552 H         1 <0>         0.1226
     49 H18         9.6886    3.6145   -1.6985 H         1 <0>         0.1248
     50 H19         8.5545    5.0157   -0.0243 H         1 <0>         0.1233
     51 H20         6.8905    4.0287    1.4953 H         1 <0>         0.1246
     52 H21         6.3506    1.6335    1.3468 H         1 <0>         0.1203
@<TRIPOS>BOND
     1    1    2 1
     2    1   32 1
     3    1   33 1
     4    1   34 1
     5    2    7 ar
     6    2    3 ar
     7    3    4 ar
     8    3   35 1
     9    4    5 ar
    10    4   36 1
    11    5    6 ar
    12    5   37 1
    13    6    7 ar
    14    6   38 1
    15    7    8 1
    16    8    9 am
    17    8   39 1
    18    9   10 2
    19    9   11 1
    20   11   12 1
    21   11   40 1
    22   11   41 1
    23   12   16 1
    24   12   13 2
    25   13   14 1
    26   14   15 2
    27   14   26 1
    28   15   16 1
    29   15   17 1
    30   17   18 2
    31   17   19 am
    32   19   20 1
    33   19   42 1
    34   20   25 ar
    35   20   21 ar
    36   21   22 ar
    37   21   43 1
    38   22   23 ar
    39   22   44 1
    40   23   24 ar
    41   23   45 1
    42   24   25 ar
    43   24   46 1
    44   25   47 1
    45   26   31 ar
    46   26   27 ar
    47   27   28 ar
    48   27   48 1
    49   28   29 ar
    50   28   49 1
    51   29   30 ar
    52   29   50 1
    53   30   31 ar
    54   30   51 1
    55   31   52 1
