@<TRIPOS>MOLECULE
ZINC15744428
   41    42     0     0     0
SMALL
USER_CHARGES
(E)-3-(4-chloro-3-nitro-phenyl)-N-[(2S)-2-phenylpropyl]prop-2-enamide
@<TRIPOS>ATOM
      1 C1          9.6833    0.5563   -1.3957 C.3       1 <0>        -0.1466
      2 C2          9.6957    1.3441   -0.0841 C.3       1 <0>        -0.0621
      3 H1          9.6043    0.6544    0.7549 H         1 <0>         0.0860
      4 C3          8.5222    2.3257   -0.0676 C.3       1 <0>         0.1265
      5 N1          7.2615    1.5795   -0.0595 N.am      1 <0>        -0.7233
      6 C4          6.0872    2.2407   -0.0447 C.2       1 <0>         0.5443
      7 O1          6.0740    3.4576   -0.0381 O.2       1 <0>        -0.5356
      8 C5          4.8275    1.4950   -0.0367 C.2       1 <0>        -0.1910
      9 C6          3.6525    2.1566   -0.0218 C.2       1 <0>        -0.0277
     10 C7          2.3861    1.4070   -0.0137 C.ar      1 <0>        -0.0637
     11 C8          2.3974    0.0082   -0.0213 C.ar      1 <0>        -0.0452
     12 C9          1.2076   -0.6872   -0.0132 C.ar      1 <0>        -0.1086
     13 C10         0.0021   -0.0041    0.0020 C.ar      1 <0>         0.0185
     14 C11        -0.0167    1.3810    0.0096 C.ar      1 <0>        -0.0395
     15 C12         1.1657    2.0898    0.0022 C.ar      1 <0>        -0.0232
     16 N2         -1.3095    2.1019    0.0197 N.pl3     1 <0>         0.0236
     17 O2         -1.3277    3.3197    0.0264 O.2       1 <0>        -0.1550
     18 O3         -2.3551    1.4771    0.0212 O.3       1 <0>        -0.1305
     19 Cl1        -1.4918   -0.8883    0.0110 Cl        1 <0>         0.0028
     20 C13        10.9903    2.1069    0.0314 C.ar      1 <0>        -0.0804
     21 C14        11.3296    3.0420   -0.9285 C.ar      1 <0>        -0.1124
     22 C15        12.5150    3.7448   -0.8202 C.ar      1 <0>        -0.1170
     23 C16        13.3656    3.5057    0.2429 C.ar      1 <0>        -0.1200
     24 C17        13.0286    2.5672    1.2002 C.ar      1 <0>        -0.1179
     25 C18        11.8411    1.8675    1.0942 C.ar      1 <0>        -0.1137
     26 H2          9.7747    1.2461   -2.2347 H         1 <0>         0.0613
     27 H3         10.5193   -0.1430   -1.4074 H         1 <0>         0.0626
     28 H4          8.7469    0.0046   -1.4792 H         1 <0>         0.0584
     29 H5          8.5646    2.9577   -0.9547 H         1 <0>         0.0732
     30 H6          8.5817    2.9481    0.8252 H         1 <0>         0.0725
     31 H7          7.2720    0.6095   -0.0648 H         1 <0>         0.4021
     32 H8          4.8391    0.4151   -0.0426 H         1 <0>         0.1332
     33 H9          3.6408    3.2365   -0.0159 H         1 <0>         0.1483
     34 H10         3.3362   -0.5255   -0.0339 H         1 <0>         0.1567
     35 H11         1.2148   -1.7672   -0.0191 H         1 <0>         0.1625
     36 H12         1.1496    3.1696    0.0078 H         1 <0>         0.1686
     37 H13        10.6669    3.2258   -1.7613 H         1 <0>         0.1218
     38 H14        12.7782    4.4783   -1.5680 H         1 <0>         0.1232
     39 H15        14.2933    4.0524    0.3257 H         1 <0>         0.1224
     40 H16        13.6931    2.3804    2.0308 H         1 <0>         0.1231
     41 H17        11.5780    1.1340    1.8420 H         1 <0>         0.1217
@<TRIPOS>BOND
     1    1    2 1
     2    1   26 1
     3    1   27 1
     4    1   28 1
     5    2    3 1
     6    2    4 1
     7    2   20 1
     8    4    5 1
     9    4   29 1
    10    4   30 1
    11    5    6 am
    12    5   31 1
    13    6    7 2
    14    6    8 1
    15    8    9 2
    16    8   32 1
    17    9   10 1
    18    9   33 1
    19   10   15 ar
    20   10   11 ar
    21   11   12 ar
    22   11   34 1
    23   12   13 ar
    24   12   35 1
    25   13   14 ar
    26   13   19 1
    27   14   15 ar
    28   14   16 1
    29   15   36 1
    30   16   17 2
    31   16   18 1
    32   20   25 ar
    33   20   21 ar
    34   21   22 ar
    35   21   37 1
    36   22   23 ar
    37   22   38 1
    38   23   24 ar
    39   23   39 1
    40   24   25 ar
    41   24   40 1
    42   25   41 1
