@<TRIPOS>MOLECULE
ZINC39527726
   57    59     0     0     0
SMALL
USER_CHARGES

@<TRIPOS>ATOM
      1 C1         -0.4278   -0.3262    1.7540 C.3       1 <0>        -0.1685
      2 C2         -0.0388   -0.6030    0.3004 C.3       1 <0>        -0.5709
      3 C3          0.8279   -1.8621    0.2353 C.3       1 <0>        -0.1319
      4 S1         -1.5382   -0.8491   -0.6905 S.o2      1 <0>         2.4371
      5 O1         -1.5672    0.0727   -1.7716 O.2       1 <0>        -0.8837
      6 O2         -1.7546   -2.2355   -0.9146 O.2       1 <0>        -0.8862
      7 N1         -2.7825   -0.3814    0.2971 N.pl3     1 <0>        -0.9543
      8 C4         -3.1737   -1.2044    1.4500 C.3       1 <0>         0.2100
      9 H1         -2.9595   -0.6657    2.3730 H         1 <0>         0.0944
     10 C5         -4.6752   -1.4946    1.3613 C.3       1 <0>        -0.1227
     11 C6         -5.4407   -0.1747    1.2438 C.3       1 <0>        -0.1208
     12 C7         -5.0136    0.5529   -0.0333 C.3       1 <0>        -0.1197
     13 C8         -3.5124    0.8667    0.0414 C.3       1 <0>         0.1929
     14 C9         -3.2465    1.8543    1.1779 C.3       1 <0>        -0.1237
     15 C10        -1.7476    2.1527    1.2538 C.3       1 <0>        -0.1722
     16 C11        -1.2807    2.7585   -0.0713 C.3       1 <0>        -0.1460
     17 C12        -1.5459    1.7682   -1.2070 C.3       1 <0>        -0.0949
     18 H2         -1.0000    0.8439   -1.0179 H         1 <0>         0.1710
     19 C13        -3.0446    1.4689   -1.2836 C.3       1 <0>        -0.0930
     20 S2         -0.9919    2.4870   -2.7777 S.3       1 <0>        -0.2385
     21 C14         0.8051    2.6383   -2.5814 C.3       1 <0>        -0.1267
     22 C15        -2.4037   -2.4997    1.4307 C.ar      1 <0>        -0.2711
     23 C16        -2.4047   -3.2878    0.2958 C.ar      1 <0>         0.0856
     24 C17        -1.6990   -4.4764    0.2776 C.ar      1 <0>        -0.1861
     25 C18        -0.9900   -4.8794    1.3944 C.ar      1 <0>        -0.0620
     26 C19        -0.9853   -4.0949    2.5312 C.ar      1 <0>        -0.2101
     27 C20        -1.6886   -2.8989    2.5502 C.ar      1 <0>         0.1649
     28 O3         -1.6810   -2.1225    3.6655 O.3       1 <0>        -0.5004
     29 H3         -0.2925   -1.2319    2.3451 H         1 <0>         0.0943
     30 H4          0.2037    0.4668    2.1545 H         1 <0>         0.0705
     31 H5         -1.4719   -0.0163    1.7980 H         1 <0>         0.1081
     32 H6          0.5219    0.2448   -0.0934 H         1 <0>         0.1269
     33 H7          0.4830   -2.5795    0.9799 H         1 <0>         0.0826
     34 H8          0.7520   -2.3045   -0.7580 H         1 <0>         0.0614
     35 H9          1.8663   -1.5993    0.4376 H         1 <0>         0.0750
     36 H10        -4.8754   -2.1105    0.4845 H         1 <0>         0.0714
     37 H11        -4.9971   -2.0231    2.2586 H         1 <0>         0.0766
     38 H12        -6.5109   -0.3778    1.2053 H         1 <0>         0.0691
     39 H13        -5.2209    0.4509    2.1089 H         1 <0>         0.0685
     40 H14        -5.2129   -0.0811   -0.8972 H         1 <0>         0.0708
     41 H15        -5.5741    1.4830   -0.1269 H         1 <0>         0.0780
     42 H16        -3.7921    2.7792    0.9907 H         1 <0>         0.0759
     43 H17        -3.5789    1.4209    2.1212 H         1 <0>         0.0725
     44 H18        -1.5580    2.8583    2.0627 H         1 <0>         0.0652
     45 H19        -1.2021    1.2281    1.4428 H         1 <0>         0.1025
     46 H20        -1.8266    3.6828   -0.2605 H         1 <0>         0.0643
     47 H21        -0.2132    2.9718   -0.0172 H         1 <0>         0.0547
     48 H22        -3.2329    0.7613   -2.0910 H         1 <0>         0.0968
     49 H23        -3.5902    2.3928   -1.4756 H         1 <0>         0.0705
     50 H24         1.0247    3.2865   -1.7330 H         1 <0>         0.0718
     51 H25         1.2358    1.6524   -2.4064 H         1 <0>         0.0685
     52 H26         1.2347    3.0670   -3.4869 H         1 <0>         0.0978
     53 H27        -2.9577   -2.9752   -0.5776 H         1 <0>         0.1802
     54 H28        -1.7017   -5.0914   -0.6102 H         1 <0>         0.1206
     55 H29        -0.4397   -5.8085    1.3778 H         1 <0>         0.1196
     56 H30        -0.4314   -4.4101    3.4031 H         1 <0>         0.1228
     57 H31        -2.3905   -2.3250    4.2906 H         1 <0>         0.3906
@<TRIPOS>BOND
     1    1    2 1
     2    1   29 1
     3    1   30 1
     4    1   31 1
     5    2    3 1
     6    2    4 1
     7    2   32 1
     8    3   33 1
     9    3   34 1
    10    3   35 1
    11    4    5 2
    12    4    6 2
    13    4    7 1
    14    7   13 1
    15    7    8 1
    16    8    9 1
    17    8   10 1
    18    8   22 1
    19   10   11 1
    20   10   36 1
    21   10   37 1
    22   11   12 1
    23   11   38 1
    24   11   39 1
    25   12   13 1
    26   12   40 1
    27   12   41 1
    28   13   19 1
    29   13   14 1
    30   14   15 1
    31   14   42 1
    32   14   43 1
    33   15   16 1
    34   15   44 1
    35   15   45 1
    36   16   17 1
    37   16   46 1
    38   16   47 1
    39   17   18 1
    40   17   19 1
    41   17   20 1
    42   19   48 1
    43   19   49 1
    44   20   21 1
    45   21   50 1
    46   21   51 1
    47   21   52 1
    48   22   27 ar
    49   22   23 ar
    50   23   24 ar
    51   23   53 1
    52   24   25 ar
    53   24   54 1
    54   25   26 ar
    55   25   55 1
    56   26   27 ar
    57   26   56 1
    58   27   28 1
    59   28   57 1
