@<TRIPOS>MOLECULE
ZINC65395260
   43    45     0     0     0
SMALL
USER_CHARGES

@<TRIPOS>ATOM
      1 C1          2.5297   -1.8451   -1.1386 C.3       1 <0>        -0.0824
      2 C2          1.2046   -1.4824   -0.5194 C.2       1 <0>         0.1293
      3 C3          0.1024   -0.9166   -1.1937 C.2       1 <0>         0.0074
      4 C4         -0.8912   -0.7409   -0.2954 C.2       1 <0>         0.0566
      5 O1         -0.4502   -1.1725    0.8988 O.3       1 <0>        -0.0800
      6 N1          0.8752   -1.6418    0.7311 N.2       1 <0>        -0.3198
      7 C5         -2.2533   -0.1632   -0.5816 C.3       1 <0>        -0.0801
      8 N2          0.0476   -0.5916   -2.5623 N.am      1 <0>        -0.6693
      9 C6          0.1935   -1.5577   -3.4907 C.2       1 <0>         0.7307
     10 O2          0.4031   -2.7050   -3.1465 O.2       1 <0>        -0.5681
     11 N3          0.1072   -1.2521   -4.8005 N.am      1 <0>        -0.6304
     12 C7         -0.1339    0.0743   -5.4190 C.3       1 <0>         0.1071
     13 C8          0.8397    0.1208   -6.6168 C.3       1 <0>        -0.1014
     14 H1          1.7626    0.6522   -6.3843 H         1 <0>         0.1091
     15 C9          0.1025    0.7208   -7.8320 C.3       1 <0>         0.1109
     16 N4          0.4698   -0.1566   -8.9671 N.am      1 <0>        -0.6129
     17 C10         0.4491   -1.5225   -8.3954 C.3       1 <0>         0.1297
     18 C11         1.0830   -1.3710   -6.9809 C.3       1 <0>        -0.1443
     19 C12         0.2374   -2.1614   -5.9651 C.3       1 <0>         0.1437
     20 C13         2.5420   -1.7468   -6.9454 C.2       1 <0>         0.5173
     21 O3          2.8713   -2.8862   -6.6630 O.co2     1 <0>        -0.6832
     22 O4          3.3930   -0.9114   -7.1992 O.co2     1 <0>        -0.6859
     23 C14         0.7573    0.2058  -10.2331 C.2       1 <0>         0.5314
     24 O5          1.0420   -0.6387  -11.0557 O.2       1 <0>        -0.5523
     25 C15         0.7248    1.6602  -10.6264 C.3       1 <0>        -0.1665
     26 H2          2.5184   -2.8948   -1.4322 H         1 <0>         0.0984
     27 H3          2.7023   -1.2239   -2.0175 H         1 <0>         0.0836
     28 H4          3.3270   -1.6791   -0.4141 H         1 <0>         0.0796
     29 H5         -2.9263   -0.9596   -0.8992 H         1 <0>         0.0936
     30 H6         -2.6458    0.3061    0.3205 H         1 <0>         0.0859
     31 H7         -2.1729    0.5818   -1.3732 H         1 <0>         0.0903
     32 H8         -0.0953    0.3276   -2.8372 H         1 <0>         0.4022
     33 H9         -1.1652    0.1523   -5.7631 H         1 <0>         0.0747
     34 H10         0.0940    0.8716   -4.7116 H         1 <0>         0.0702
     35 H11        -0.9752    0.7008   -7.6700 H         1 <0>         0.0717
     36 H12         0.4408    1.7406   -8.0156 H         1 <0>         0.0798
     37 H13        -0.5754   -1.8869   -8.3199 H         1 <0>         0.0681
     38 H14         1.0493   -2.1982   -9.0048 H         1 <0>         0.0820
     39 H15         0.7501   -3.0790   -5.6765 H         1 <0>         0.1019
     40 H16        -0.7435   -2.3874   -6.3834 H         1 <0>         0.0633
     41 H17         0.4511    2.2644   -9.7614 H         1 <0>         0.0751
     42 H18         1.7094    1.9620  -10.9836 H         1 <0>         0.0933
     43 H19        -0.0096    1.8060  -11.4185 H         1 <0>         0.0900
@<TRIPOS>BOND
     1    1    2 1
     2    1   26 1
     3    1   27 1
     4    1   28 1
     5    2    6 2
     6    2    3 1
     7    3    4 2
     8    3    8 1
     9    4    5 1
    10    4    7 1
    11    5    6 1
    12    7   29 1
    13    7   30 1
    14    7   31 1
    15    8    9 am
    16    8   32 1
    17    9   10 2
    18    9   11 am
    19   11   19 1
    20   11   12 1
    21   12   13 1
    22   12   33 1
    23   12   34 1
    24   13   14 1
    25   13   18 1
    26   13   15 1
    27   15   16 1
    28   15   35 1
    29   15   36 1
    30   16   17 1
    31   16   23 am
    32   17   18 1
    33   17   37 1
    34   17   38 1
    35   18   19 1
    36   18   20 1
    37   19   39 1
    38   19   40 1
    39   20   21 2
    40   20   22 1
    41   23   24 2
    42   23   25 1
    43   25   41 1
    44   25   42 1
    45   25   43 1
