@<TRIPOS>MOLECULE
ZINC35032776
   53    56     0     0     0
SMALL
USER_CHARGES

@<TRIPOS>ATOM
      1 C1          0.0781    1.4163    0.5379 C.3       1 <0>        -0.1720
      2 C2          0.0462   -0.1091    0.4240 C.3       1 <0>         0.1250
      3 H1          0.5832   -0.4178   -0.4729 H         1 <0>         0.1136
      4 C3         -1.3839   -0.5767    0.3391 C.2       1 <0>         0.4062
      5 N1         -2.3255    0.2622    0.6480 N.2       1 <0>        -0.5142
      6 C4         -3.6351   -0.0876    0.5952 C.ar      1 <0>         0.1535
      7 C5         -4.6484    0.8143    0.9269 C.ar      1 <0>        -0.1096
      8 C6         -5.9645    0.4164    0.8586 C.ar      1 <0>        -0.0725
      9 C7         -6.2986   -0.8725    0.4635 C.ar      1 <0>        -0.1375
     10 C8         -5.3170   -1.7802    0.1313 C.ar      1 <0>        -0.0415
     11 C9         -3.9786   -1.3975    0.1938 C.ar      1 <0>        -0.1981
     12 C10        -2.8883   -2.3226   -0.1493 C.2       1 <0>         0.5464
     13 O1         -3.1159   -3.4650   -0.5026 O.2       1 <0>        -0.5089
     14 N2         -1.6220   -1.8526   -0.0621 N.am      1 <0>        -0.5338
     15 C11        -0.4976   -2.7297   -0.3979 C.3       1 <0>         0.0669
     16 N3          0.6858   -0.7019    1.6062 N.3       1 <0>        -0.5274
     17 C12        -0.0029   -0.2934    2.8378 C.3       1 <0>         0.0405
     18 C13         0.5764   -1.0705    4.0247 C.3       1 <0>         0.1226
     19 N4          2.0354   -0.8852    4.0372 N.pl3     1 <0>        -0.9978
     20 C14         2.7803   -1.1435    2.7956 C.3       1 <0>         0.1214
     21 C15         2.1143   -0.3635    1.6571 C.3       1 <0>         0.0430
     22 S1          2.8187   -0.3991    5.4129 S.o2      1 <0>         2.6900
     23 O2          4.0323    0.2107    4.9953 O.2       1 <0>        -0.9480
     24 O3          1.8580    0.2823    6.2080 O.2       1 <0>        -0.9478
     25 C16         3.2654   -1.8545    6.2999 C.ar      1 <0>        -0.6675
     26 C17         2.3930   -2.3940    7.2266 C.ar      1 <0>        -0.0133
     27 C18         2.7429   -3.5360    7.9223 C.ar      1 <0>        -0.1114
     28 C19         3.9662   -4.1389    7.6912 C.ar      1 <0>        -0.0386
     29 C20         4.8388   -3.5986    6.7639 C.ar      1 <0>        -0.1114
     30 C21         4.4859   -2.4596    6.0648 C.ar      1 <0>        -0.0132
     31 Br1         4.4456   -5.7008    8.6432 Br        1 <0>        -0.0307
     32 H2          1.1106    1.7518    0.6355 H         1 <0>         0.0658
     33 H3         -0.3641    1.8567   -0.3558 H         1 <0>         0.0707
     34 H4         -0.4894    1.7271    1.4150 H         1 <0>         0.0783
     35 H5         -4.4007    1.8191    1.2358 H         1 <0>         0.1397
     36 H6         -6.7469    1.1150    1.1158 H         1 <0>         0.1351
     37 H7         -7.3370   -1.1658    0.4166 H         1 <0>         0.1340
     38 H8         -5.5828   -2.7812   -0.1749 H         1 <0>         0.1374
     39 H9         -0.1138   -3.1926    0.5112 H         1 <0>         0.0852
     40 H10        -0.8345   -3.5049   -1.0861 H         1 <0>         0.0889
     41 H11         0.2920   -2.1440   -0.8687 H         1 <0>         0.0854
     42 H12         0.1410    0.7752    2.9976 H         1 <0>         0.0570
     43 H13        -1.0677   -0.5079    2.7474 H         1 <0>         0.0872
     44 H14         0.1510   -0.6907    4.9536 H         1 <0>         0.1001
     45 H15         0.3427   -2.1298    3.9179 H         1 <0>         0.0786
     46 H16         3.8122   -0.8120    2.9120 H         1 <0>         0.1018
     47 H17         2.7585   -2.2099    2.5707 H         1 <0>         0.0815
     48 H18         2.5850   -0.6290    0.7104 H         1 <0>         0.0955
     49 H19         2.2287    0.7060    1.8333 H         1 <0>         0.0543
     50 H20         1.4381   -1.9230    7.4073 H         1 <0>         0.1493
     51 H21         2.0614   -3.9572    8.6466 H         1 <0>         0.1450
     52 H22         5.7940   -4.0690    6.5831 H         1 <0>         0.1452
     53 H23         5.1654   -2.0401    5.3378 H         1 <0>         0.1499
@<TRIPOS>BOND
     1    1    2 1
     2    1   32 1
     3    1   33 1
     4    1   34 1
     5    2    3 1
     6    2    4 1
     7    2   16 1
     8    4   14 1
     9    4    5 2
    10    5    6 1
    11    6   11 ar
    12    6    7 ar
    13    7    8 ar
    14    7   35 1
    15    8    9 ar
    16    8   36 1
    17    9   10 ar
    18    9   37 1
    19   10   11 ar
    20   10   38 1
    21   11   12 1
    22   12   13 2
    23   12   14 am
    24   14   15 1
    25   15   39 1
    26   15   40 1
    27   15   41 1
    28   16   21 1
    29   16   17 1
    30   17   18 1
    31   17   42 1
    32   17   43 1
    33   18   19 1
    34   18   44 1
    35   18   45 1
    36   19   20 1
    37   19   22 1
    38   20   21 1
    39   20   46 1
    40   20   47 1
    41   21   48 1
    42   21   49 1
    43   22   23 2
    44   22   24 2
    45   22   25 1
    46   25   30 ar
    47   25   26 ar
    48   26   27 ar
    49   26   50 1
    50   27   28 ar
    51   27   51 1
    52   28   29 ar
    53   28   31 1
    54   29   30 ar
    55   29   52 1
    56   30   53 1
