@<TRIPOS>MOLECULE
ZINC10642435
   44    47     0     0     0
SMALL
USER_CHARGES
N-(5-ethyl-1,3,4-thiadiazol-2-yl)-7-methyl-3-(p-tolyl)-9-oxa-2,8-diazabicyclo[4.3.0]nona-1,3,5,7-tetraene-5-carboxamide
@<TRIPOS>ATOM
      1 C1         -0.9191    1.1834   -0.0623 C.3       1 <0>        -0.1507
      2 C2         -1.1382    1.6235    1.3866 C.3       1 <0>        -0.0292
      3 C3         -1.1430    3.1288    1.4590 C.2       1 <0>         0.0787
      4 N1         -2.1443    3.9792    1.3479 N.2       1 <0>        -0.2560
      5 N2         -1.9787    5.2265    1.4337 N.2       1 <0>        -0.2752
      6 C4         -0.7830    5.7607    1.6418 C.2       1 <0>         0.2829
      7 S1          0.2084    4.2720    1.7284 S.3       1 <0>        -0.0171
      8 N3         -0.4079    7.0929    1.7636 N.am      1 <0>        -0.6037
      9 C5         -1.3359    8.0657    1.6691 C.2       1 <0>         0.5555
     10 O1         -2.5010    7.7775    1.4772 O.2       1 <0>        -0.4339
     11 C6         -0.9365    9.4843    1.7988 C.ar      1 <0>         0.0059
     12 C7          0.0710    9.8689    2.6795 C.ar      1 <0>        -0.1698
     13 C8          0.4201   11.2186    2.7650 C.ar      1 <0>         0.2589
     14 N4         -0.1943   12.1378    2.0364 N.ar      1 <0>        -0.4602
     15 C9         -1.1616   11.8279    1.1889 C.ar      1 <0>         0.3106
     16 C10        -1.5682   10.4901    1.0388 C.ar      1 <0>        -0.2084
     17 C11        -2.6381   10.4868    0.0428 C.2       1 <0>         0.1550
     18 N5         -2.8189   11.7158   -0.3354 N.2       1 <0>        -0.2654
     19 O2         -1.9232   12.5640    0.3539 O.3       1 <0>        -0.0754
     20 C12        -3.3921    9.2800   -0.4533 C.3       1 <0>        -0.0842
     21 C13         1.4966   11.6319    3.6971 C.ar      1 <0>        -0.0770
     22 C14         2.1510   10.6793    4.4766 C.ar      1 <0>        -0.0839
     23 C15         3.1561   11.0691    5.3382 C.ar      1 <0>        -0.1258
     24 C16         3.5068   12.4036    5.4375 C.ar      1 <0>        -0.0579
     25 C17         2.8569   13.3540    4.6706 C.ar      1 <0>        -0.1271
     26 C18         1.8542   12.9753    3.8014 C.ar      1 <0>        -0.0599
     27 C19         4.6006   12.8237    6.3852 C.3       1 <0>        -0.1225
     28 H1         -0.9157    0.0946   -0.1147 H         1 <0>         0.0765
     29 H2          0.0370    1.5673   -0.4180 H         1 <0>         0.0597
     30 H3         -1.7226    1.5746   -0.6863 H         1 <0>         0.0655
     31 H4         -2.0944    1.2397    1.7423 H         1 <0>         0.1097
     32 H5         -0.3348    1.2323    2.0107 H         1 <0>         0.0977
     33 H6          0.5220    7.3229    1.9168 H         1 <0>         0.4318
     34 H7          0.5790    9.1328    3.2848 H         1 <0>         0.1589
     35 H8         -4.2092    9.0550    0.2321 H         1 <0>         0.1074
     36 H9         -3.7958    9.4861   -1.4447 H         1 <0>         0.0869
     37 H10        -2.7167    8.4261   -0.5063 H         1 <0>         0.0934
     38 H11         1.8748    9.6378    4.4034 H         1 <0>         0.1286
     39 H12         3.6669   10.3315    5.9393 H         1 <0>         0.1311
     40 H13         3.1351   14.3944    4.7520 H         1 <0>         0.1308
     41 H14         1.3473   13.7182    3.2034 H         1 <0>         0.1401
     42 H15         4.1691   13.0518    7.3598 H         1 <0>         0.0765
     43 H16         5.3230   12.0140    6.4881 H         1 <0>         0.0705
     44 H17         5.1008   13.7092    5.9931 H         1 <0>         0.0709
@<TRIPOS>BOND
     1    1    2 1
     2    1   28 1
     3    1   29 1
     4    1   30 1
     5    2    3 1
     6    2   31 1
     7    2   32 1
     8    3    7 1
     9    3    4 2
    10    4    5 1
    11    5    6 2
    12    6    7 1
    13    6    8 1
    14    8    9 am
    15    8   33 1
    16    9   10 2
    17    9   11 1
    18   11   16 ar
    19   11   12 ar
    20   12   13 ar
    21   12   34 1
    22   13   14 ar
    23   13   21 1
    24   14   15 ar
    25   15   19 1
    26   15   16 ar
    27   16   17 1
    28   17   18 2
    29   17   20 1
    30   18   19 1
    31   20   35 1
    32   20   36 1
    33   20   37 1
    34   21   26 ar
    35   21   22 ar
    36   22   23 ar
    37   22   38 1
    38   23   24 ar
    39   23   39 1
    40   24   25 ar
    41   24   27 1
    42   25   26 ar
    43   25   40 1
    44   26   41 1
    45   27   42 1
    46   27   43 1
    47   27   44 1
