@<TRIPOS>MOLECULE
ZINC62250891
   37    39     0     0     0
SMALL
USER_CHARGES

@<TRIPOS>ATOM
      1 C1          0.1161    1.5823   -0.6044 C.2       1 <0>        -0.0026
      2 C2          1.4093    1.9552   -0.5227 C.2       1 <0>         0.0218
      3 N1          2.1407    0.8111   -0.3934 N.pl3     1 <0>        -0.4047
      4 C3          1.2686   -0.2251   -0.3942 C.cat     1 <0>         0.3293
      5 N2          0.0629    0.2427   -0.5247 N.pl3     1 <0>        -0.4652
      6 C4          1.6853   -1.6720   -0.2556 C.3       1 <0>         0.1575
      7 N3          3.1525   -1.7146   -0.3959 N.am      1 <0>        -0.6254
      8 C5          3.9438   -0.6869    0.2977 C.3       1 <0>         0.0892
      9 C6          3.5955    0.6901   -0.2785 C.3       1 <0>         0.0799
     10 C7          3.7511   -2.6675   -1.1376 C.2       1 <0>         0.5453
     11 O1          4.9500   -2.6323   -1.3174 O.2       1 <0>        -0.5017
     12 C8          2.9306   -3.7769   -1.7436 C.3       1 <0>        -0.0870
     13 H1          1.8890   -3.6695   -1.4409 H         1 <0>         0.0935
     14 C9          3.4667   -5.1301   -1.2712 C.3       1 <0>        -0.0702
     15 C10         4.8030   -5.4036   -1.8968 C.2       1 <0>        -0.1819
     16 C11         5.2582   -4.7811   -2.9365 C.2       1 <0>        -0.1140
     17 C12         4.5174   -3.6918   -3.6554 C.3       1 <0>        -0.0719
     18 C13         3.0320   -3.7169   -3.2730 C.3       1 <0>        -0.1458
     19 H2          2.5593   -4.5983   -3.7064 H         1 <0>         0.0831
     20 C14         2.3499   -2.4714   -3.7774 C.2       1 <0>         0.5017
     21 O2          2.7404   -1.9339   -4.7997 O.co2     1 <0>        -0.6774
     22 O3          1.4075   -2.0012   -3.1632 O.co2     1 <0>        -0.7148
     23 H3         -0.7297    2.2455   -0.7107 H         1 <0>         0.2217
     24 H4          1.7921    2.9647   -0.5536 H         1 <0>         0.2199
     25 H5          1.3945   -2.0504    0.7244 H         1 <0>         0.1195
     26 H6          1.2195   -2.2697   -1.0391 H         1 <0>         0.1737
     27 H7          3.7116   -0.7055    1.3626 H         1 <0>         0.0912
     28 H8          5.0057   -0.8848    0.1520 H         1 <0>         0.1325
     29 H9          4.0487    0.7975   -1.2640 H         1 <0>         0.1190
     30 H10         3.9744    1.4683    0.3839 H         1 <0>         0.1289
     31 H11         3.5712   -5.1186   -0.1863 H         1 <0>         0.0655
     32 H12         2.7667   -5.9155   -1.5564 H         1 <0>         0.0822
     33 H13         5.4235   -6.1677   -1.4522 H         1 <0>         0.0979
     34 H14         6.2314   -5.0633   -3.3099 H         1 <0>         0.0962
     35 H15         4.9421   -2.7256   -3.3832 H         1 <0>         0.0801
     36 H16         4.6157   -3.8373   -4.7312 H         1 <0>         0.0705
     37 H17        -0.7465   -0.2908   -0.5590 H         1 <0>         0.4625
@<TRIPOS>BOND
     1    1    5 1
     2    1    2 2
     3    1   23 1
     4    2    3 1
     5    2   24 1
     6    3    9 1
     7    3    4 1
     8    4    5 2
     9    4    6 1
    10    5   37 1
    11    6    7 1
    12    6   25 1
    13    6   26 1
    14    7    8 1
    15    7   10 am
    16    8    9 1
    17    8   27 1
    18    8   28 1
    19    9   29 1
    20    9   30 1
    21   10   11 2
    22   10   12 1
    23   12   13 1
    24   12   18 1
    25   12   14 1
    26   14   15 1
    27   14   31 1
    28   14   32 1
    29   15   16 2
    30   15   33 1
    31   16   17 1
    32   16   34 1
    33   17   18 1
    34   17   35 1
    35   17   36 1
    36   18   19 1
    37   18   20 1
    38   20   21 2
    39   20   22 1
