@<TRIPOS>MOLECULE
ZINC36769761
   41    43     0     0     0
SMALL
USER_CHARGES

@<TRIPOS>ATOM
      1 C1         -0.0187    1.5258    0.0104 C.3       1 <0>        -0.1497
      2 C2          0.0021   -0.0041    0.0020 C.3       1 <0>        -0.1158
      3 C3          0.7182   -0.4975   -1.2568 C.3       1 <0>         0.0936
      4 H1          1.7104   -0.0494   -1.3103 H         1 <0>         0.0686
      5 C4          0.8479   -2.0221   -1.2068 C.3       1 <0>         0.0260
      6 N1          1.4669   -2.4973   -2.4527 N.3       1 <0>        -0.5309
      7 C5          0.6649   -2.0976   -3.6182 C.3       1 <0>         0.0160
      8 C6          0.5371   -0.5722   -3.6441 C.3       1 <0>         0.0661
      9 O1         -0.0370   -0.1251   -2.4128 O.3       1 <0>        -0.3773
     10 C7          1.6617   -3.9530   -2.4219 C.3       1 <0>         0.1255
     11 C8          2.5119   -4.3709   -3.5939 C.ar      1 <0>         0.3660
     12 N2          1.9291   -4.6851   -4.7350 N.ar      1 <0>        -0.4687
     13 C9          2.6537   -5.0524   -5.7700 C.ar      1 <0>         0.1269
     14 C10         4.0658   -5.1216   -5.6937 C.ar      1 <0>        -0.1709
     15 C11         4.7217   -5.5435   -6.9198 C.2       1 <0>        -0.0977
     16 C12         3.9759   -5.8273   -7.9973 C.2       1 <0>        -0.1211
     17 S1          2.3069   -5.5447   -7.4376 S.3       1 <0>         0.1253
     18 C13         4.4388   -6.2775   -9.3589 C.3       1 <0>        -0.0752
     19 C14         6.2230   -5.6602   -6.9798 C.3       1 <0>        -0.1192
     20 C15         4.6240   -4.7721   -4.4421 C.ar      1 <0>         0.2752
     21 N3          3.8256   -4.4097   -3.4586 N.ar      1 <0>        -0.5003
     22 Cl1         6.3435   -4.8129   -4.2063 Cl        1 <0>         0.0058
     23 H2          1.0039    1.9031    0.0027 H         1 <0>         0.0531
     24 H3         -0.5459    1.8868   -0.8726 H         1 <0>         0.0619
     25 H4         -0.5289    1.8773    0.9072 H         1 <0>         0.0557
     26 H5          0.5293   -0.3651    0.8851 H         1 <0>         0.0783
     27 H6         -1.0205   -0.3814    0.0098 H         1 <0>         0.0709
     28 H7          1.4711   -2.3068   -0.3591 H         1 <0>         0.0915
     29 H8         -0.1408   -2.4681   -1.0984 H         1 <0>         0.0496
     30 H9          1.1547   -2.4373   -4.5308 H         1 <0>         0.0845
     31 H10        -0.3266   -2.5448   -3.5484 H         1 <0>         0.0514
     32 H11         1.5240   -0.1263   -3.7678 H         1 <0>         0.0574
     33 H12        -0.1040   -0.2746   -4.4738 H         1 <0>         0.1002
     34 H13         2.1595   -4.2334   -1.4937 H         1 <0>         0.1117
     35 H14         0.6936   -4.4504   -2.4797 H         1 <0>         0.0735
     36 H15         4.4865   -7.3662   -9.3848 H         1 <0>         0.0882
     37 H16         3.7372   -5.9265  -10.1156 H         1 <0>         0.0810
     38 H17         5.4275   -5.8656   -9.5611 H         1 <0>         0.0897
     39 H18         6.5209   -6.6682   -6.6914 H         1 <0>         0.0780
     40 H19         6.5628   -5.4574   -7.9954 H         1 <0>         0.0752
     41 H20         6.6711   -4.9392   -6.2960 H         1 <0>         0.0802
@<TRIPOS>BOND
     1    1    2 1
     2    1   23 1
     3    1   24 1
     4    1   25 1
     5    2    3 1
     6    2   26 1
     7    2   27 1
     8    3    4 1
     9    3    9 1
    10    3    5 1
    11    5    6 1
    12    5   28 1
    13    5   29 1
    14    6    7 1
    15    6   10 1
    16    7    8 1
    17    7   30 1
    18    7   31 1
    19    8    9 1
    20    8   32 1
    21    8   33 1
    22   10   11 1
    23   10   34 1
    24   10   35 1
    25   11   21 ar
    26   11   12 ar
    27   12   13 ar
    28   13   17 1
    29   13   14 ar
    30   14   15 1
    31   14   20 ar
    32   15   16 2
    33   15   19 1
    34   16   17 1
    35   16   18 1
    36   18   36 1
    37   18   37 1
    38   18   38 1
    39   19   39 1
    40   19   40 1
    41   19   41 1
    42   20   21 ar
    43   20   22 1
