@<TRIPOS>MOLECULE
ZINC35018447
   31    32     0     0     0
SMALL
USER_CHARGES

@<TRIPOS>ATOM
      1 C1         -0.0173    1.4248    0.0099 C.3       1 <0>         0.0330
      2 O1          0.0021   -0.0041    0.0020 O.3       1 <0>        -0.3191
      3 C2          0.6059   -0.6073   -1.0560 C.ar      1 <0>         0.1622
      4 C3         -0.1298   -0.9215   -2.1899 C.ar      1 <0>        -0.1129
      5 C4          0.4870   -1.5344   -3.2646 C.ar      1 <0>        -0.0424
      6 C5          1.8355   -1.8349   -3.2102 C.ar      1 <0>        -0.1078
      7 C6          2.5708   -1.5234   -2.0815 C.ar      1 <0>        -0.0423
      8 C7          1.9605   -0.9048   -1.0064 C.ar      1 <0>        -0.1128
      9 Br1         2.9688   -0.4721    0.5338 Br        1 <0>        -0.0158
     10 C8          2.5049   -2.5035   -4.3831 C.3       1 <0>         0.1668
     11 N1          3.0193   -1.4825   -5.2991 N.pl3     1 <0>        -0.7369
     12 C9          3.6849   -1.8635   -6.4681 C.ar      1 <0>         0.2332
     13 C10         3.8542   -3.2094   -6.7651 C.ar      1 <0>        -0.1763
     14 C11         4.5118   -3.5831   -7.9209 C.ar      1 <0>        -0.0526
     15 C12         5.0024   -2.6180   -8.7828 C.ar      1 <0>        -0.0828
     16 C13         4.8359   -1.2759   -8.4900 C.ar      1 <0>        -0.0513
     17 C14         4.1734   -0.8959   -7.3380 C.ar      1 <0>        -0.1033
     18 Cl1         3.9579    0.7879   -6.9747 Cl        1 <0>        -0.0600
     19 Cl2         5.8287   -3.0920  -10.2341 Cl        1 <0>        -0.0646
     20 Br2        -1.9744   -0.5121   -2.2648 Br        1 <0>        -0.0158
     21 H1          1.0053    1.8021    0.0021 H         1 <0>         0.0533
     22 H2         -0.5445    1.7859   -0.8732 H         1 <0>         0.0533
     23 H3         -0.5275    1.7763    0.9067 H         1 <0>         0.1062
     24 H4         -0.0851   -1.7792   -4.1473 H         1 <0>         0.1477
     25 H5          3.6239   -1.7595   -2.0416 H         1 <0>         0.1477
     26 H6          3.3297   -3.1210   -4.0272 H         1 <0>         0.0815
     27 H7          1.7817   -3.1295   -4.9058 H         1 <0>         0.0814
     28 H8          2.8980   -0.5420   -5.0946 H         1 <0>         0.4065
     29 H9          3.4724   -3.9634   -6.0927 H         1 <0>         0.1408
     30 H10         4.6435   -4.6298   -8.1520 H         1 <0>         0.1400
     31 H11         5.2204   -0.5248   -9.1641 H         1 <0>         0.1433
@<TRIPOS>BOND
     1    1    2 1
     2    1   21 1
     3    1   22 1
     4    1   23 1
     5    2    3 1
     6    3    8 ar
     7    3    4 ar
     8    4    5 ar
     9    4   20 1
    10    5    6 ar
    11    5   24 1
    12    6    7 ar
    13    6   10 1
    14    7    8 ar
    15    7   25 1
    16    8    9 1
    17   10   11 1
    18   10   26 1
    19   10   27 1
    20   11   12 1
    21   11   28 1
    22   12   17 ar
    23   12   13 ar
    24   13   14 ar
    25   13   29 1
    26   14   15 ar
    27   14   30 1
    28   15   16 ar
    29   15   19 1
    30   16   17 ar
    31   16   31 1
    32   17   18 1
