@<TRIPOS>MOLECULE
ZINC40939632
   52    54     0     0     0
SMALL
USER_CHARGES

@<TRIPOS>ATOM
      1 C1         -0.0187    1.5258    0.0104 C.3       1 <0>        -0.1481
      2 C2          0.0021   -0.0041    0.0020 C.3       1 <0>        -0.0878
      3 C3          0.7074   -0.4901   -1.2379 C.ar      1 <0>        -0.0401
      4 C4         -0.0113   -0.7184   -2.3970 C.ar      1 <0>        -0.1513
      5 C5          0.6328   -1.1642   -3.5360 C.ar      1 <0>        -0.0755
      6 C6          1.9969   -1.3833   -3.5188 C.ar      1 <0>        -0.2157
      7 C7          2.7201   -1.1550   -2.3574 C.ar      1 <0>         0.1281
      8 C8          2.0722   -0.7017   -1.2172 C.ar      1 <0>        -0.1428
      9 O1          4.0619   -1.3697   -2.3379 O.3       1 <0>        -0.2887
     10 C9          4.6629   -1.8306   -3.5497 C.3       1 <0>         0.0500
     11 C10         6.1441   -2.0110   -3.3388 C.2       1 <0>         0.5127
     12 O2          6.6366   -1.7687   -2.2574 O.2       1 <0>        -0.4680
     13 N1          6.9215   -2.4416   -4.3521 N.am      1 <0>        -0.6183
     14 C11         8.2835   -2.6075   -4.1583 C.2       1 <0>         0.0448
     15 C12         9.2271   -3.0322   -5.0804 C.2       1 <0>        -0.2033
     16 C13        10.5991   -3.1192   -4.6120 C.2       1 <0>        -0.0376
     17 C14        10.7951   -2.7707   -3.3141 C.2       1 <0>        -0.1956
     18 S1          9.1632   -2.3326   -2.7570 S.3       1 <0>         0.3165
     19 C15        12.0851   -2.7532   -2.5352 C.3       1 <0>        -0.0687
     20 C16        11.7093   -3.5588   -5.4903 C.ar      1 <0>        -0.0200
     21 C17        11.7324   -4.8600   -5.9906 C.ar      1 <0>        -0.0968
     22 C18        12.7680   -5.2638   -6.8081 C.ar      1 <0>        -0.0894
     23 C19        13.7830   -4.3799   -7.1313 C.ar      1 <0>        -0.0862
     24 C20        13.7650   -3.0869   -6.6374 C.ar      1 <0>        -0.0891
     25 C21        12.7312   -2.6709   -5.8237 C.ar      1 <0>        -0.0901
     26 Br1        15.1997   -4.9409   -8.2512 Br        1 <0>        -0.0474
     27 C22         8.8601   -3.3755   -6.4542 C.2       1 <0>         0.5308
     28 O3          8.8709   -2.5196   -7.3187 O.2       1 <0>        -0.4872
     29 O4          8.5095   -4.6412   -6.7625 O.3       1 <0>        -0.3457
     30 C23         8.1630   -4.9052   -8.1234 C.3       1 <0>         0.0290
     31 H1          1.0039    1.9031    0.0027 H         1 <0>         0.0572
     32 H2         -0.5459    1.8868   -0.8726 H         1 <0>         0.0566
     33 H3         -0.5289    1.8773    0.9072 H         1 <0>         0.0608
     34 H4          0.5293   -0.3651    0.8851 H         1 <0>         0.0756
     35 H5         -1.0205   -0.3814    0.0098 H         1 <0>         0.0761
     36 H6         -1.0778   -0.5484   -2.4123 H         1 <0>         0.1254
     37 H7          0.0692   -1.3418   -4.4401 H         1 <0>         0.1272
     38 H8          2.4995   -1.7323   -4.4087 H         1 <0>         0.1264
     39 H9          2.6339   -0.5187   -0.3130 H         1 <0>         0.1331
     40 H10         4.2179   -2.7835   -3.8363 H         1 <0>         0.1041
     41 H11         4.4948   -1.0988   -4.3398 H         1 <0>         0.1038
     42 H12         6.5275   -2.6354   -5.2171 H         1 <0>         0.4209
     43 H13        12.5554   -1.7748   -2.6331 H         1 <0>         0.0814
     44 H14        11.8775   -2.9530   -1.4840 H         1 <0>         0.0782
     45 H15        12.7554   -3.5192   -2.9252 H         1 <0>         0.0814
     46 H16        10.9414   -5.5507   -5.7384 H         1 <0>         0.1357
     47 H17        12.7869   -6.2715   -7.1961 H         1 <0>         0.1359
     48 H18        14.5596   -2.4014   -6.8924 H         1 <0>         0.1370
     49 H19        12.7160   -1.6606   -5.4422 H         1 <0>         0.1350
     50 H20         7.9022   -5.9577   -8.2344 H         1 <0>         0.1057
     51 H21         7.3110   -4.2878   -8.4078 H         1 <0>         0.0610
     52 H22         9.0117   -4.6715   -8.7663 H         1 <0>         0.0630
@<TRIPOS>BOND
     1    1    2 1
     2    1   31 1
     3    1   32 1
     4    1   33 1
     5    2    3 1
     6    2   34 1
     7    2   35 1
     8    3    8 ar
     9    3    4 ar
    10    4    5 ar
    11    4   36 1
    12    5    6 ar
    13    5   37 1
    14    6    7 ar
    15    6   38 1
    16    7    8 ar
    17    7    9 1
    18    8   39 1
    19    9   10 1
    20   10   11 1
    21   10   40 1
    22   10   41 1
    23   11   12 2
    24   11   13 am
    25   13   14 1
    26   13   42 1
    27   14   18 1
    28   14   15 2
    29   15   16 1
    30   15   27 1
    31   16   17 2
    32   16   20 1
    33   17   18 1
    34   17   19 1
    35   19   43 1
    36   19   44 1
    37   19   45 1
    38   20   25 ar
    39   20   21 ar
    40   21   22 ar
    41   21   46 1
    42   22   23 ar
    43   22   47 1
    44   23   24 ar
    45   23   26 1
    46   24   25 ar
    47   24   48 1
    48   25   49 1
    49   27   28 2
    50   27   29 1
    51   29   30 1
    52   30   50 1
    53   30   51 1
    54   30   52 1
