@<TRIPOS>MOLECULE
ZINC67155392
   35    36     0     0     0
SMALL
USER_CHARGES

@<TRIPOS>ATOM
      1 C1         -0.0187    1.5258    0.0104 C.3       1 <0>        -0.1517
      2 C2          0.0021   -0.0041    0.0020 C.3       1 <0>        -0.6058
      3 S1         -1.6997   -0.6320    0.0149 S.o2      1 <0>         2.4932
      4 O1         -2.3220   -0.3339    1.2571 O.2       1 <0>        -0.9296
      5 O2         -2.3456   -0.3206   -1.2120 O.2       1 <0>        -0.9277
      6 C3         -1.5353   -2.3862    0.0039 C.ar      1 <0>        -0.6695
      7 C4         -1.4766   -3.0664   -1.2002 C.ar      1 <0>         0.0148
      8 C5         -1.3476   -4.4430   -1.2187 C.ar      1 <0>        -0.1365
      9 C6         -1.2768   -5.1488   -0.0332 C.ar      1 <0>         0.0636
     10 C7         -1.3354   -4.4679    1.1852 C.ar      1 <0>        -0.1496
     11 C8         -1.4596   -3.0772    1.1949 C.ar      1 <0>         0.0201
     12 C9         -1.2604   -5.2154    2.4576 C.2       1 <0>         0.5583
     13 O3         -1.1474   -6.4257    2.4458 O.2       1 <0>        -0.5045
     14 N1         -1.3173   -4.5553    3.6313 N.am      1 <0>        -0.7254
     15 C10        -1.2429   -5.2964    4.8929 C.3       1 <0>         0.2091
     16 C11        -1.3284   -4.3320    6.0478 C.2       1 <0>        -0.1746
     17 C12        -2.4245   -3.8882    6.7094 C.2       1 <0>        -0.1194
     18 C13        -2.2628   -2.9935    7.7511 C.2       1 <0>        -0.1430
     19 C14        -1.0110   -2.5869    8.0795 C.2       1 <0>        -0.1115
     20 S2         -0.0110   -3.4842    6.9039 S.3       1 <0>         0.1082
     21 Cl1        -0.5107   -1.4852    9.3244 Cl        1 <0>         0.0228
     22 Cl2        -1.1159   -6.8772   -0.0576 Cl        1 <0>        -0.0082
     23 H1          1.0039    1.9031    0.0027 H         1 <0>         0.0879
     24 H2         -0.5459    1.8868   -0.8726 H         1 <0>         0.0761
     25 H3         -0.5289    1.8773    0.9072 H         1 <0>         0.0758
     26 H4          0.5123   -0.3556   -0.8948 H         1 <0>         0.1379
     27 H5          0.5293   -0.3651    0.8851 H         1 <0>         0.1369
     28 H6         -1.5322   -2.5193   -2.1297 H         1 <0>         0.1590
     29 H7         -1.3024   -4.9674   -2.1617 H         1 <0>         0.1549
     30 H8         -1.5012   -2.5442    2.1333 H         1 <0>         0.1517
     31 H9         -1.4075   -3.5896    3.6407 H         1 <0>         0.4032
     32 H10        -2.0705   -6.0036    4.9481 H         1 <0>         0.0999
     33 H11        -0.2983   -5.8380    4.9409 H         1 <0>         0.0909
     34 H12        -3.4100   -4.2281    6.4269 H         1 <0>         0.1462
     35 H13        -3.1197   -2.6239    8.2947 H         1 <0>         0.1464
@<TRIPOS>BOND
     1    1    2 1
     2    1   23 1
     3    1   24 1
     4    1   25 1
     5    2    3 1
     6    2   26 1
     7    2   27 1
     8    3    4 2
     9    3    5 2
    10    3    6 1
    11    6   11 ar
    12    6    7 ar
    13    7    8 ar
    14    7   28 1
    15    8    9 ar
    16    8   29 1
    17    9   10 ar
    18    9   22 1
    19   10   11 ar
    20   10   12 1
    21   11   30 1
    22   12   13 2
    23   12   14 am
    24   14   15 1
    25   14   31 1
    26   15   16 1
    27   15   32 1
    28   15   33 1
    29   16   20 1
    30   16   17 2
    31   17   18 1
    32   17   34 1
    33   18   19 2
    34   18   35 1
    35   19   20 1
    36   19   21 1
