@<TRIPOS>MOLECULE
ZINC39458977
   28    30     0     0     0
SMALL
USER_CHARGES

@<TRIPOS>ATOM
      1 C1         -0.0184    1.5028    0.0103 C.3       1 <0>        -0.0922
      2 C2          0.0021   -0.0041    0.0020 C.2       1 <0>         0.0292
      3 C3          0.0077   -0.7897   -1.1041 C.2       1 <0>         0.0434
      4 C4          0.0318   -2.1194   -0.6795 C.2       1 <0>        -0.1404
      5 C5          0.0493   -2.1059    0.6929 C.2       1 <0>         0.0710
      6 N1          0.0239   -0.8066    1.1062 N.pl3     1 <0>        -0.4001
      7 Br1         0.0159   -0.2298    2.8640 Br        1 <0>         0.2262
      8 C6          0.1159   -3.3393    1.4963 C.ar      1 <0>         0.2290
      9 C7          1.0486   -4.3223    1.0799 C.ar      1 <0>        -0.1526
     10 C8          1.1175   -5.5284    1.7814 C.ar      1 <0>        -0.0176
     11 C9          0.2786   -5.6918    2.8738 C.ar      1 <0>        -0.1365
     12 C10        -0.5883   -4.6739    3.2342 C.ar      1 <0>         0.1273
     13 N2         -0.6504   -3.5449    2.5529 N.ar      1 <0>        -0.4485
     14 Br2         2.3164   -6.8942    1.2587 Br        1 <0>        -0.0051
     15 C11         1.9211   -4.0250   -0.0527 C.2       1 <0>         0.4057
     16 O1          3.0860   -3.7529    0.1500 O.2       1 <0>        -0.4206
     17 C12         1.4028   -4.0498   -1.4725 C.3       1 <0>        -0.1535
     18 C13         0.0281   -3.3671   -1.5180 C.3       1 <0>        -0.0478
     19 F1         -0.0076   -0.3622   -2.3856 F         1 <0>        -0.1136
     20 H1          1.0042    1.8801    0.0026 H         1 <0>         0.0854
     21 H2         -0.5455    1.8639   -0.8728 H         1 <0>         0.0946
     22 H3         -0.5286    1.8543    0.9071 H         1 <0>         0.0776
     23 H4          0.3013   -6.6103    3.4415 H         1 <0>         0.1584
     24 H5         -1.2294   -4.8070    4.0932 H         1 <0>         0.1782
     25 H6          2.0962   -3.5165   -2.1229 H         1 <0>         0.1065
     26 H7          1.3081   -5.0826   -1.8079 H         1 <0>         0.1140
     27 H8         -0.7275   -4.0542   -1.1372 H         1 <0>         0.0842
     28 H9         -0.2102   -3.1067   -2.5493 H         1 <0>         0.0977
@<TRIPOS>BOND
     1    1    2 1
     2    1   20 1
     3    1   21 1
     4    1   22 1
     5    2    6 1
     6    2    3 2
     7    3    4 1
     8    3   19 1
     9    4   18 1
    10    4    5 2
    11    5    6 1
    12    5    8 1
    13    6    7 1
    14    8   13 ar
    15    8    9 ar
    16    9   10 ar
    17    9   15 1
    18   10   11 ar
    19   10   14 1
    20   11   12 ar
    21   11   23 1
    22   12   13 ar
    23   12   24 1
    24   15   16 2
    25   15   17 1
    26   17   18 1
    27   17   25 1
    28   17   26 1
    29   18   27 1
    30   18   28 1
