@<TRIPOS>MOLECULE
ZINC00368211
   35    38     0     0     0
SMALL
USER_CHARGES
N-acenaphthen-5-yl-2-chloro-pyridine-3-carboxamide
@<TRIPOS>ATOM
      1 C1          2.5897    4.0034    0.0204 C.ar      1 <0>        -0.1039
      2 C2          3.7469    3.2216    0.0130 C.ar      1 <0>        -0.1080
      3 C3          3.6589    1.8630    0.0086 C.ar      1 <0>        -0.0719
      4 C4          2.3906    1.2904    0.0114 C.ar      1 <0>        -0.0680
      5 C5          2.3843   -0.1011    0.0069 C.ar      1 <0>        -0.0884
      6 C6          1.1810   -0.7398    0.0083 C.ar      1 <0>        -0.0870
      7 C7         -0.0076   -0.0098    0.0138 C.ar      1 <0>        -0.1080
      8 C8         -0.0199    1.3720    0.0189 C.ar      1 <0>         0.1412
      9 C9          1.2130    2.0578    0.0181 C.ar      1 <0>        -0.0499
     10 C10         1.3392    3.4549    0.0233 C.ar      1 <0>        -0.1169
     11 N1         -1.2257    2.0739    0.0192 N.am      1 <0>        -0.6605
     12 C11        -2.2900    1.5852   -0.6479 C.2       1 <0>         0.5594
     13 O1         -2.2246    0.4949   -1.1817 O.2       1 <0>        -0.4863
     14 C12        -3.5360    2.3745   -0.7304 C.ar      1 <0>        -0.1787
     15 C13        -3.6264    3.6291   -0.1150 C.ar      1 <0>        -0.0305
     16 C14        -4.8140    4.3300   -0.2259 C.ar      1 <0>        -0.1758
     17 C15        -5.8686    3.7707   -0.9254 C.ar      1 <0>         0.1483
     18 N2         -5.7581    2.5843   -1.4915 N.ar      1 <0>        -0.4799
     19 C16        -4.6466    1.8794   -1.4189 C.ar      1 <0>         0.2271
     20 Cl1        -4.5616    0.3240   -2.1851 Cl        1 <0>         0.0162
     21 C17         3.8230   -0.5590    0.0005 C.3       1 <0>        -0.0772
     22 C18         4.6632    0.7365    0.0014 C.3       1 <0>        -0.0791
     23 H1          2.6872    5.0790    0.0235 H         1 <0>         0.1246
     24 H2          4.7165    3.6971    0.0104 H         1 <0>         0.1252
     25 H3          1.1471   -1.8193    0.0049 H         1 <0>         0.1287
     26 H4         -0.9478   -0.5413    0.0143 H         1 <0>         0.1428
     27 H5          0.4626    4.0857    0.0295 H         1 <0>         0.1221
     28 H6         -1.2981    2.9135    0.4994 H         1 <0>         0.4082
     29 H7         -2.7892    4.0406    0.4291 H         1 <0>         0.1470
     30 H8         -4.9184    5.3021    0.2329 H         1 <0>         0.1539
     31 H9         -6.7980    4.3144   -1.0091 H         1 <0>         0.1750
     32 H10         4.0360   -1.1480    0.8926 H         1 <0>         0.0874
     33 H11         4.0296   -1.1426   -0.8966 H         1 <0>         0.0872
     34 H12         5.2875    0.7812    0.8938 H         1 <0>         0.0879
     35 H13         5.2820    0.7860   -0.8946 H         1 <0>         0.0879
@<TRIPOS>BOND
     1    1   10 ar
     2    1    2 ar
     3    1   23 1
     4    2    3 ar
     5    2   24 1
     6    3   22 1
     7    3    4 ar
     8    4    9 ar
     9    4    5 ar
    10    5    6 ar
    11    5   21 1
    12    6    7 ar
    13    6   25 1
    14    7    8 ar
    15    7   26 1
    16    8    9 ar
    17    8   11 1
    18    9   10 ar
    19   10   27 1
    20   11   12 am
    21   11   28 1
    22   12   13 2
    23   12   14 1
    24   14   19 ar
    25   14   15 ar
    26   15   16 ar
    27   15   29 1
    28   16   17 ar
    29   16   30 1
    30   17   18 ar
    31   17   31 1
    32   18   19 ar
    33   19   20 1
    34   21   22 1
    35   21   32 1
    36   21   33 1
    37   22   34 1
    38   22   35 1
