@<TRIPOS>MOLECULE
ZINC19818749
   38    40     0     0     0
SMALL
USER_CHARGES
(9R)-4-isopropyl-9-methyl-9,10-dihydro-8H-pyrimido[6,5-c]isoquinoline-1,3,7-trione
@<TRIPOS>ATOM
      1 C1         -6.4062    5.4599    4.3755 C.3       1 <0>        -0.1487
      2 C2         -5.7769    4.8366    3.1280 C.3       1 <0>        -0.0867
      3 H1         -6.3260    3.9221    2.8595 H         1 <0>         0.0810
      4 C3         -4.3189    4.4847    3.4148 C.3       1 <0>        -0.1035
      5 C4         -3.6228    4.0015    2.1760 C.ar      1 <0>         0.1206
      6 C5         -4.0875    4.3199    0.8961 C.ar      1 <0>        -0.2713
      7 C6         -3.3967    3.8490   -0.2265 C.ar      1 <0>         0.2421
      8 N1         -2.3167    3.1074   -0.0966 N.ar      1 <0>        -0.5245
      9 C7         -1.8378    2.7766    1.0933 C.ar      1 <0>         0.4363
     10 C8         -2.4791    3.2167    2.2695 C.ar      1 <0>        -0.2679
     11 C9         -1.9087    2.8259    3.5703 C.2       1 <0>         0.5763
     12 O1         -2.4261    3.1808    4.6117 O.2       1 <0>        -0.4856
     13 N2         -0.7942    2.0614    3.5733 N.am      1 <0>        -0.6750
     14 H2         -0.3395    1.7556    4.5271 H         1 <0>         0.4680
     15 C10        -0.2249    1.6635    2.4247 C.2       1 <0>         0.7101
     16 O2          0.7735    0.9725    2.4815 O.2       1 <0>        -0.5223
     17 N3         -0.7044    1.9982    1.2158 N.am      1 <0>        -0.5214
     18 C11        -0.0187    1.5258    0.0104 C.3       1 <0>         0.1385
     19 C12         0.0021   -0.0041    0.0020 C.3       1 <0>        -0.1733
     20 C13         1.4167    2.0553   -0.0004 C.3       1 <0>        -0.1726
     21 C14        -5.2972    5.1430    0.7360 C.2       1 <0>         0.4142
     22 O3         -5.8387    5.2609   -0.3429 O.2       1 <0>        -0.4461
     23 C15        -5.8413    5.8381    1.9674 C.3       1 <0>        -0.1635
     24 H3         -6.3599    4.7417    5.2074 H         1 <0>         0.0644
     25 H4         -7.4562    5.7140    4.1685 H         1 <0>         0.0635
     26 H5         -5.8549    6.3721    4.6475 H         1 <0>         0.0618
     27 H6         -3.7930    5.3761    3.7874 H         1 <0>         0.1064
     28 H7         -4.2760    3.6897    4.1738 H         1 <0>         0.1206
     29 H8         -3.7553    4.0976   -1.2144 H         1 <0>         0.1849
     30 H9         -0.5801    1.9105   -0.8538 H         1 <0>         0.1231
     31 H10         0.5169   -0.3588   -0.9030 H         1 <0>         0.0794
     32 H11        -1.0299   -0.3849    0.0099 H         1 <0>         0.0569
     33 H12         0.5342   -0.3684    0.8931 H         1 <0>         0.0841
     34 H13         1.9315    1.7006   -0.9055 H         1 <0>         0.0795
     35 H14         1.9487    1.6908    0.8907 H         1 <0>         0.0834
     36 H15         1.4018    3.1552    0.0058 H         1 <0>         0.0570
     37 H16        -6.8851    6.1455    1.8058 H         1 <0>         0.1026
     38 H17        -5.2325    6.7213    2.2110 H         1 <0>         0.1076
@<TRIPOS>BOND
     1    1    2 1
     2    1   24 1
     3    1   25 1
     4    1   26 1
     5    2    3 1
     6    2   23 1
     7    2    4 1
     8    4    5 1
     9    4   27 1
    10    4   28 1
    11    5   10 ar
    12    5    6 ar
    13    6    7 ar
    14    6   21 1
    15    7    8 ar
    16    7   29 1
    17    8    9 ar
    18    9   17 1
    19    9   10 ar
    20   10   11 1
    21   11   12 2
    22   11   13 am
    23   13   14 1
    24   13   15 am
    25   15   16 2
    26   15   17 am
    27   17   18 1
    28   18   19 1
    29   18   20 1
    30   18   30 1
    31   19   31 1
    32   19   32 1
    33   19   33 1
    34   20   34 1
    35   20   35 1
    36   20   36 1
    37   21   22 2
    38   21   23 1
    39   23   37 1
    40   23   38 1
