@<TRIPOS>MOLECULE
ZINC40261139
   22    23     0     0     0
SMALL
USER_CHARGES

@<TRIPOS>ATOM
      1 C1         -0.0167    1.3823    0.0096 C.ar      1 <0>        -0.1564
      2 C2          1.1808    2.0721    0.0019 C.ar      1 <0>         0.1051
      3 N1          2.3308    1.4269   -0.0130 N.ar      1 <0>        -0.4799
      4 C3          2.3867    0.1094   -0.0206 C.ar      1 <0>         0.1053
      5 C4          1.2303   -0.6473   -0.0132 C.ar      1 <0>        -0.1621
      6 C5          0.0021   -0.0041    0.0020 C.ar      1 <0>        -0.0713
      7 C6         -1.2819   -0.7930    0.0105 C.3       1 <0>         0.2019
      8 H1         -2.0934   -0.1624    0.3735 H         1 <0>         0.1277
      9 C7         -1.5946   -1.2587   -1.3882 C.2       1 <0>        -0.1109
     10 C8         -1.2171   -2.5209   -1.8087 C.2       1 <0>        -0.1070
     11 C9         -1.5142   -2.9082   -3.0738 C.2       1 <0>        -0.1617
     12 S1         -2.3521   -1.4678   -3.7143 S.3       1 <0>         0.1788
     13 C10        -2.2553   -0.4486   -2.2518 C.2       1 <0>        -0.1609
     14 Br1        -2.9040    1.3066   -1.9787 Br        1 <0>         0.0576
     15 Br2        -1.1378   -4.5485   -3.9362 Br        1 <0>         0.0573
     16 O1         -1.1389   -1.9264    0.8691 O.3       1 <0>        -0.5365
     17 H2         -0.9553    1.9163    0.0259 H         1 <0>         0.1370
     18 H3          1.1748    3.1521    0.0078 H         1 <0>         0.1597
     19 H4          3.3473   -0.3840   -0.0331 H         1 <0>         0.1591
     20 H5          1.2825   -1.7260   -0.0195 H         1 <0>         0.1316
     21 H6         -0.6934   -3.1878   -1.1398 H         1 <0>         0.1495
     22 H7         -0.4331   -2.5327    0.6058 H         1 <0>         0.3759
@<TRIPOS>BOND
     1    1    6 ar
     2    1    2 ar
     3    1   17 1
     4    2    3 ar
     5    2   18 1
     6    3    4 ar
     7    4    5 ar
     8    4   19 1
     9    5    6 ar
    10    5   20 1
    11    6    7 1
    12    7    8 1
    13    7    9 1
    14    7   16 1
    15    9   13 2
    16    9   10 1
    17   10   11 2
    18   10   21 1
    19   11   12 1
    20   11   15 1
    21   12   13 1
    22   13   14 1
    23   16   22 1
