@<TRIPOS>MOLECULE
ZINC09167057
   35    38     0     0     0
SMALL
USER_CHARGES
2,5-dichloro-N-[5-(7-methoxybenzofuran-2-yl)-1,3,4-oxadiazol-2-yl]-thiophene-3-carboxamide
@<TRIPOS>ATOM
      1 C1          3.2851   -3.4912   -0.0476 C.3       1 <0>         0.0250
      2 O1          3.0099   -2.0890   -0.0374 O.3       1 <0>        -0.3127
      3 C2          1.7023   -1.7167   -0.0234 C.ar      1 <0>         0.1440
      4 C3          0.7067   -2.6777   -0.0191 C.ar      1 <0>        -0.1792
      5 C4         -0.6306   -2.3105   -0.0039 C.ar      1 <0>        -0.0915
      6 C5         -0.9871   -0.9907    0.0062 C.ar      1 <0>        -0.0963
      7 C6          0.0021   -0.0041    0.0020 C.ar      1 <0>        -0.0980
      8 C7          1.3600   -0.3662   -0.0129 C.ar      1 <0>         0.0456
      9 O2          2.0858    0.7711   -0.0137 O.3       1 <0>        -0.1733
     10 C8          1.2820    1.8535   -0.0002 C.2       1 <0>         0.0974
     11 C9         -0.0178    1.4595    0.0101 C.2       1 <0>        -0.1114
     12 C10         1.7429    3.2497    0.0021 C.2       1 <0>         0.2262
     13 N1          0.9819    4.3206    0.0086 N.2       1 <0>        -0.2233
     14 N2          1.7245    5.3712    0.0112 N.2       1 <0>        -0.2531
     15 C11         2.9870    5.0146   -0.0019 C.2       1 <0>         0.4014
     16 O3          3.0278    3.6689   -0.0079 O.3       1 <0>        -0.2223
     17 N3          4.0781    5.8665   -0.0088 N.am      1 <0>        -0.6095
     18 C12         3.8910    7.2012   -0.0014 C.2       1 <0>         0.5805
     19 O4          2.7632    7.6573    0.0112 O.2       1 <0>        -0.4382
     20 C13         5.0495    8.1058   -0.0087 C.2       1 <0>        -0.1723
     21 C14         6.4008    7.6004   -0.0182 C.2       1 <0>        -0.1113
     22 C15         7.3952    8.5101   -0.0300 C.2       1 <0>        -0.1325
     23 S1          6.5237   10.0631   -0.0144 S.3       1 <0>         0.2557
     24 C16         4.8939    9.4785   -0.0010 C.2       1 <0>        -0.0759
     25 Cl1         3.4202   10.3958    0.0168 Cl        1 <0>         0.0722
     26 Cl2         9.1092    8.2348   -0.0473 Cl        1 <0>         0.0389
     27 H1          2.8427   -3.9418   -0.9361 H         1 <0>         0.0600
     28 H2          4.3634   -3.6497   -0.0584 H         1 <0>         0.1045
     29 H3          2.8590   -3.9516    0.8438 H         1 <0>         0.0600
     30 H4          0.9738   -3.7241   -0.0272 H         1 <0>         0.1447
     31 H5         -1.3959   -3.0726   -0.0003 H         1 <0>         0.1385
     32 H6         -2.0303   -0.7116    0.0176 H         1 <0>         0.1381
     33 H7         -0.8895    2.0970    0.0178 H         1 <0>         0.1815
     34 H8          4.9773    5.5029   -0.0189 H         1 <0>         0.4280
     35 H9          6.6064    6.5402   -0.0202 H         1 <0>         0.1584
@<TRIPOS>BOND
     1    1    2 1
     2    1   27 1
     3    1   28 1
     4    1   29 1
     5    2    3 1
     6    3    8 ar
     7    3    4 ar
     8    4    5 ar
     9    4   30 1
    10    5    6 ar
    11    5   31 1
    12    6    7 ar
    13    6   32 1
    14    7   11 1
    15    7    8 ar
    16    8    9 1
    17    9   10 1
    18   10   11 2
    19   10   12 1
    20   11   33 1
    21   12   16 1
    22   12   13 2
    23   13   14 1
    24   14   15 2
    25   15   16 1
    26   15   17 1
    27   17   18 am
    28   17   34 1
    29   18   19 2
    30   18   20 1
    31   20   24 2
    32   20   21 1
    33   21   22 2
    34   21   35 1
    35   22   23 1
    36   22   26 1
    37   23   24 1
    38   24   25 1
