@<TRIPOS>MOLECULE
ZINC62430124
   37    40     0     0     0
SMALL
USER_CHARGES

@<TRIPOS>ATOM
      1 C1          0.8176   -0.1655    0.6244 C.ar      1 <0>        -0.1861
      2 C2          1.9142    0.6570    0.7859 C.ar      1 <0>        -0.0425
      3 C3          2.5455    1.1989   -0.3259 C.ar      1 <0>         0.0399
      4 C4          2.0738    0.9136   -1.6004 C.ar      1 <0>        -0.0371
      5 C5          0.9773    0.0912   -1.7626 C.ar      1 <0>        -0.1881
      6 C6          0.3455   -0.4512   -0.6505 C.ar      1 <0>         0.2385
      7 N1         -0.7646   -1.2844   -0.8144 N.pl3     1 <0>        -0.8685
      8 N2          3.6595    2.0351   -0.1615 N.pl3     1 <0>        -0.2272
      9 C7          4.7199    1.8079    0.6737 C.2       1 <0>         0.0246
     10 C8          5.5583    2.8749    0.5059 C.2       1 <0>        -0.0296
     11 N3          4.9792    3.6706   -0.3963 N.2       1 <0>        -0.2658
     12 N4          3.8671    3.1482   -0.7735 N.2       1 <0>        -0.0737
     13 C9          4.9175    0.6488    1.5720 C.ar      1 <0>        -0.0258
     14 C10         4.3102   -0.5737    1.2836 C.ar      1 <0>        -0.1056
     15 C11         4.4997   -1.6481    2.1258 C.ar      1 <0>        -0.1020
     16 C12         5.2897   -1.5213    3.2581 C.ar      1 <0>        -0.0854
     17 C13         5.8945   -0.3114    3.5495 C.ar      1 <0>        -0.0933
     18 C14         5.7160    0.7708    2.7078 C.ar      1 <0>        -0.0790
     19 C15         6.6955   -0.4349    4.8283 C.3       1 <0>        -0.0835
     20 C16         6.1647   -1.7106    5.5158 C.3       1 <0>        -0.1213
     21 C17         5.6443   -2.5387    4.3220 C.3       1 <0>        -0.0857
     22 H1          0.3294   -0.5906    1.4890 H         1 <0>         0.1353
     23 H2          2.2811    0.8794    1.7770 H         1 <0>         0.1331
     24 H3          2.5648    1.3355   -2.4649 H         1 <0>         0.1365
     25 H4          0.6103   -0.1304   -2.7538 H         1 <0>         0.1357
     26 H5         -1.2055   -1.6633   -0.0378 H         1 <0>         0.4029
     27 H6         -1.0942   -1.4838   -1.7046 H         1 <0>         0.4033
     28 H7          6.5018    3.0411    1.0043 H         1 <0>         0.1946
     29 H8          3.6932   -0.6777    0.4033 H         1 <0>         0.1295
     30 H9          4.0296   -2.5945    1.9026 H         1 <0>         0.1246
     31 H10         6.1921    1.7135    2.9333 H         1 <0>         0.1283
     32 H11         7.7563   -0.5410    4.6013 H         1 <0>         0.0832
     33 H12         6.5291    0.4346    5.4641 H         1 <0>         0.0777
     34 H13         6.9687   -2.2362    6.0309 H         1 <0>         0.0790
     35 H14         5.3539   -1.4711    6.2039 H         1 <0>         0.0736
     36 H15         4.7602   -3.1063    4.6122 H         1 <0>         0.0769
     37 H16         6.4230   -3.2096    3.9591 H         1 <0>         0.0831
@<TRIPOS>BOND
     1    1    6 ar
     2    1    2 ar
     3    1   22 1
     4    2    3 ar
     5    2   23 1
     6    3    4 ar
     7    3    8 1
     8    4    5 ar
     9    4   24 1
    10    5    6 ar
    11    5   25 1
    12    6    7 1
    13    7   26 1
    14    7   27 1
    15    8   12 1
    16    8    9 1
    17    9   10 2
    18    9   13 1
    19   10   11 1
    20   10   28 1
    21   11   12 2
    22   13   18 ar
    23   13   14 ar
    24   14   15 ar
    25   14   29 1
    26   15   16 ar
    27   15   30 1
    28   16   21 1
    29   16   17 ar
    30   17   18 ar
    31   17   19 1
    32   18   31 1
    33   19   20 1
    34   19   32 1
    35   19   33 1
    36   20   21 1
    37   20   34 1
    38   20   35 1
    39   21   36 1
    40   21   37 1
