@<TRIPOS>MOLECULE
ZINC66868373
   45    48     0     0     0
SMALL
USER_CHARGES

@<TRIPOS>ATOM
      1 C1         -0.4780    0.7283   -0.2401 C.3       1 <0>        -0.1159
      2 C2         -0.2786   -0.7613   -0.1294 C.2       1 <0>         0.2291
      3 C3         -1.3873   -1.6111   -0.0546 C.2       1 <0>        -0.2228
      4 C4         -1.1928   -2.9516    0.0448 C.2       1 <0>         0.2053
      5 N1          0.0799   -3.4378    0.0693 N.pl3     1 <0>        -0.3079
      6 C5          1.1352   -2.5754   -0.0060 C.2       1 <0>         0.3514
      7 N2          0.9381   -1.2617   -0.1088 N.2       1 <0>        -0.4588
      8 C6          2.3065   -3.3628    0.0427 C.2       1 <0>        -0.3359
      9 C7          1.8899   -4.7060    0.1485 C.2       1 <0>         0.1432
     10 N3          0.5849   -4.7391    0.1632 N.2       1 <0>        -0.3026
     11 C8          3.6387   -2.8951   -0.0056 C.2       1 <0>         0.4371
     12 O1          3.8615   -1.7048   -0.0984 O.2       1 <0>        -0.4014
     13 C9          4.7834   -3.8732    0.0578 C.3       1 <0>         0.0690
     14 H1          4.5063   -4.7910   -0.4608 H         1 <0>         0.1476
     15 C10         5.0907   -4.1783    1.4647 C.1       1 <0>         0.2131
     16 N4          5.3278   -4.4138    2.5504 N.1       1 <0>        -0.3770
     17 C11         5.9967   -3.2701   -0.6020 C.2       1 <0>         0.1721
     18 N5          6.6065   -2.1725   -0.2425 N.2       1 <0>        -0.2363
     19 N6          7.6044   -1.9473   -1.0208 N.2       1 <0>        -0.2715
     20 C12         7.6844   -2.8975   -1.9255 C.2       1 <0>         0.2304
     21 N7          6.6614   -3.7723   -1.6779 N.pl3     1 <0>        -0.4675
     22 C13         6.3455   -4.9955   -2.4198 C.3       1 <0>         0.0565
     23 C14         8.6927   -3.0045   -3.0028 C.ar      1 <0>        -0.0206
     24 C15         8.4548   -3.8248   -4.1060 C.ar      1 <0>        -0.1136
     25 C16         9.3989   -3.9199   -5.1076 C.ar      1 <0>        -0.1171
     26 C17        10.5796   -3.2042   -5.0195 C.ar      1 <0>        -0.1032
     27 C18        10.8215   -2.3890   -3.9282 C.ar      1 <0>        -0.1157
     28 C19         9.8829   -2.2809   -2.9227 C.ar      1 <0>        -0.0720
     29 C20        -2.3696   -3.8893    0.1275 C.3       1 <0>        -0.1196
     30 H2          0.4924    1.2220   -0.2916 H         1 <0>         0.0919
     31 H3         -1.0481    0.9526   -1.1416 H         1 <0>         0.0955
     32 H4         -1.0227    1.0878    0.6330 H         1 <0>         0.0959
     33 H5         -2.3880   -1.2052   -0.0753 H         1 <0>         0.1753
     34 H6          2.5422   -5.5647    0.2075 H         1 <0>         0.2078
     35 H7          5.7401   -4.7458   -3.2911 H         1 <0>         0.0922
     36 H8          7.2702   -5.4725   -2.7445 H         1 <0>         0.1024
     37 H9          5.7912   -5.6782   -1.7757 H         1 <0>         0.0975
     38 H10         7.5337   -4.3845   -4.1755 H         1 <0>         0.1278
     39 H11         9.2159   -4.5546   -5.9621 H         1 <0>         0.1301
     40 H12        11.3158   -3.2826   -5.8058 H         1 <0>         0.1285
     41 H13        11.7453   -1.8332   -3.8651 H         1 <0>         0.1326
     42 H14        10.0710   -1.6410   -2.0733 H         1 <0>         0.1381
     43 H15        -3.2952   -3.3147    0.0933 H         1 <0>         0.0990
     44 H16        -2.3413   -4.5829   -0.7129 H         1 <0>         0.0950
     45 H17        -2.3235   -4.4487    1.0619 H         1 <0>         0.0951
@<TRIPOS>BOND
     1    1    2 1
     2    1   30 1
     3    1   31 1
     4    1   32 1
     5    2    7 2
     6    2    3 1
     7    3    4 2
     8    3   33 1
     9    4    5 1
    10    4   29 1
    11    5   10 1
    12    5    6 1
    13    6    7 1
    14    6    8 2
    15    8    9 1
    16    8   11 1
    17    9   10 2
    18    9   34 1
    19   11   12 2
    20   11   13 1
    21   13   14 1
    22   13   15 1
    23   13   17 1
    24   15   16 3
    25   17   21 1
    26   17   18 2
    27   18   19 1
    28   19   20 2
    29   20   21 1
    30   20   23 1
    31   21   22 1
    32   22   35 1
    33   22   36 1
    34   22   37 1
    35   23   28 ar
    36   23   24 ar
    37   24   25 ar
    38   24   38 1
    39   25   26 ar
    40   25   39 1
    41   26   27 ar
    42   26   40 1
    43   27   28 ar
    44   27   41 1
    45   28   42 1
    46   29   43 1
    47   29   44 1
    48   29   45 1
