@<TRIPOS>MOLECULE
ZINC20483121
   27    28     0     0     0
SMALL
USER_CHARGES
[5-bromo-2-[(5-bromo-2-thienyl)methoxy]phenyl]methanol
@<TRIPOS>ATOM
      1 C1          1.4645    0.0668   -3.6614 C.ar      1 <0>        -0.0496
      2 C2          0.9478    0.4232   -2.4305 C.ar      1 <0>        -0.2034
      3 C3         -0.1940    1.2075   -2.3595 C.ar      1 <0>         0.1484
      4 C4         -0.8181    1.6279   -3.5252 C.ar      1 <0>        -0.1140
      5 C5         -0.2951    1.2742   -4.7536 C.ar      1 <0>        -0.0285
      6 C6          0.8440    0.4917   -4.8223 C.ar      1 <0>        -0.1283
      7 Br1         1.5537    0.0030   -6.5055 Br        1 <0>        -0.0465
      8 C7         -2.0623    2.4750   -3.4510 C.3       1 <0>         0.1368
      9 O1         -2.5128    2.7766   -4.7732 O.3       1 <0>        -0.6008
     10 O2         -0.7038    1.5592   -1.1497 O.3       1 <0>        -0.3037
     11 C8         -0.0127    1.0858    0.0080 C.3       1 <0>         0.1410
     12 C9         -0.7181    1.5718    1.2479 C.2       1 <0>        -0.1518
     13 C10        -1.7136    0.9792    1.9509 C.2       1 <0>        -0.1250
     14 C11        -2.2149    1.6162    3.0709 C.2       1 <0>        -0.1159
     15 C12        -1.6951    2.8157    3.4325 C.2       1 <0>        -0.1690
     16 S1         -0.4536    3.0739    2.1758 S.3       1 <0>         0.1254
     17 Br2        -2.1593    3.9231    4.8933 Br        1 <0>         0.0457
     18 H1          2.3533   -0.5442   -3.7171 H         1 <0>         0.1378
     19 H2          1.4323    0.0909   -1.5243 H         1 <0>         0.1401
     20 H3         -0.7783    1.6047   -5.6612 H         1 <0>         0.1507
     21 H4         -2.8483    1.9256   -2.9122 H         1 <0>         0.0598
     22 H5         -1.8377    3.4106   -2.9178 H         1 <0>         0.0600
     23 H6         -3.4142    3.3896   -4.9207 H         1 <0>         0.4180
     24 H7          0.0022   -0.0141    0.0019 H         1 <0>         0.0951
     25 H8          1.0193    1.4665    0.0002 H         1 <0>         0.0861
     26 H9         -2.1097    0.0235    1.6407 H         1 <0>         0.1454
     27 H10        -3.0084    1.1659    3.6488 H         1 <0>         0.1463
@<TRIPOS>BOND
     1    1    6 ar
     2    1    2 ar
     3    1   18 1
     4    2    3 ar
     5    2   19 1
     6    3    4 ar
     7    3   10 1
     8    4    5 ar
     9    4    8 1
    10    5    6 ar
    11    5   20 1
    12    6    7 1
    13    8    9 1
    14    8   21 1
    15    8   22 1
    16    9   23 1
    17   10   11 1
    18   11   12 1
    19   11   24 1
    20   11   25 1
    21   12   16 1
    22   12   13 2
    23   13   14 1
    24   13   26 1
    25   14   15 2
    26   14   27 1
    27   15   16 1
    28   15   17 1
