@<TRIPOS>MOLECULE
ZINC36581543
   76    78     0     0     0
SMALL
USER_CHARGES

@<TRIPOS>ATOM
      1 C1          2.7297   -6.5902   -3.2503 C.3       1 <0>        -0.1169
      2 C2          1.8480   -5.7571   -2.3561 C.ar      1 <0>        -0.0803
      3 C3          2.2257   -4.4714   -2.0169 C.ar      1 <0>        -0.1258
      4 C4          1.4169   -3.7072   -1.1966 C.ar      1 <0>        -0.1138
      5 C5          0.2304   -4.2286   -0.7159 C.ar      1 <0>        -0.1075
      6 C6         -0.1477   -5.5140   -1.0558 C.ar      1 <0>        -0.1172
      7 C7          0.6590   -6.2767   -1.8796 C.ar      1 <0>        -0.1258
      8 C8         -0.6508   -3.3959    0.1792 C.3       1 <0>         0.1644
      9 H1         -0.0359   -2.6963    0.7454 H         1 <0>         0.1236
     10 C9         -1.6393   -2.6294   -0.6613 C.2       1 <0>         0.5210
     11 O1         -2.8295   -2.7593   -0.4672 O.2       1 <0>        -0.5088
     12 N1         -1.2009   -1.7997   -1.6287 N.am      1 <0>        -0.7214
     13 C10        -2.1619   -1.0547   -2.4458 C.3       1 <0>         0.1724
     14 C11        -3.0092   -0.1553   -1.5435 C.3       1 <0>        -0.1621
     15 C12        -1.4082   -0.1935   -3.4613 C.3       1 <0>        -0.1561
     16 C13        -3.0718   -2.0371   -3.1858 C.3       1 <0>        -0.1611
     17 N2         -1.3728   -4.2717    1.1054 N.am      1 <0>        -0.5851
     18 C14        -2.2820   -5.1478    0.6340 C.2       1 <0>         0.5236
     19 O2         -2.4653   -5.2477   -0.5607 O.2       1 <0>        -0.4979
     20 C15        -3.0770   -6.0097    1.5987 C.3       1 <0>        -0.1332
     21 H2         -3.5013   -5.3317    2.3492 H         1 <0>         0.1409
     22 C16        -2.1270   -6.9982    2.2668 C.3       1 <0>        -0.1123
     23 C17        -2.7663   -8.3665    2.4995 C.3       1 <0>        -0.1003
     24 H3         -2.1640   -9.0341    3.1304 H         1 <0>         0.0817
     25 C18        -3.2330   -8.9972    1.1692 C.3       1 <0>        -0.1479
     26 C19        -4.4840   -8.1042    1.3651 C.3       1 <0>        -0.0894
     27 H4         -5.4099   -8.5444    0.9713 H         1 <0>         0.0794
     28 C20        -4.1947   -6.7028    0.8303 C.3       1 <0>        -0.0649
     29 H5         -3.8728   -6.8000   -0.2262 H         1 <0>         0.0900
     30 C21        -5.4652   -5.8467    0.8350 C.3       1 <0>        -0.1453
     31 C22        -4.2552   -8.3072    2.8643 C.3       1 <0>        -0.0710
     32 C23        -4.6637   -7.1666    3.7900 C.3       1 <0>        -0.1480
     33 C24        -4.8009   -9.6536    3.3825 C.3       1 <0>        -0.1321
     34 C25        -1.1066   -4.1951    2.5439 C.3       1 <0>         0.1694
     35 C26        -0.4941   -2.8333    2.8775 C.3       1 <0>        -0.1616
     36 C27        -2.4168   -4.3676    3.3150 C.3       1 <0>        -0.2026
     37 C28        -0.1309   -5.3044    2.9418 C.3       1 <0>        -0.2021
     38 H6          2.4515   -6.4247   -4.2911 H         1 <0>         0.0700
     39 H7          3.7710   -6.3040   -3.1026 H         1 <0>         0.0657
     40 H8          2.6043   -7.6446   -3.0040 H         1 <0>         0.0655
     41 H9          3.1527   -4.0640   -2.3924 H         1 <0>         0.1207
     42 H10         1.7123   -2.7029   -0.9310 H         1 <0>         0.1176
     43 H11        -1.0746   -5.9215   -0.6800 H         1 <0>         0.1751
     44 H12         0.3618   -7.2797   -2.1482 H         1 <0>         0.1170
     45 H13        -0.2490   -1.6959   -1.7839 H         1 <0>         0.3958
     46 H14        -2.3610    0.5446   -1.0162 H         1 <0>         0.0520
     47 H15        -3.7242    0.3990   -2.1514 H         1 <0>         0.0623
     48 H16        -3.5461   -0.7689   -0.8200 H         1 <0>         0.0771
     49 H17        -0.8046   -0.8342   -4.1040 H         1 <0>         0.0616
     50 H18        -2.1233    0.3609   -4.0692 H         1 <0>         0.0738
     51 H19        -0.7600    0.5065   -2.9340 H         1 <0>         0.0610
     52 H20        -3.6087   -2.6507   -2.4624 H         1 <0>         0.0806
     53 H21        -3.7868   -1.4828   -3.7938 H         1 <0>         0.0593
     54 H22        -2.4681   -2.6778   -3.8286 H         1 <0>         0.0521
     55 H23        -1.2373   -7.1213    1.6306 H         1 <0>         0.0737
     56 H24        -1.7801   -6.5855    3.2229 H         1 <0>         0.0960
     57 H25        -2.6247   -8.7024    0.3112 H         1 <0>         0.0649
     58 H26        -3.4228  -10.0617    1.2051 H         1 <0>         0.0842
     59 H27        -5.2574   -4.8855    0.3648 H         1 <0>         0.0590
     60 H28        -6.2511   -6.3598    0.2808 H         1 <0>         0.0557
     61 H29        -5.7910   -5.6856    1.8626 H         1 <0>         0.0523
     62 H30        -4.5295   -6.2152    3.2754 H         1 <0>         0.0656
     63 H31        -5.7105   -7.2835    4.0705 H         1 <0>         0.0555
     64 H32        -4.0431   -7.1858    4.6859 H         1 <0>         0.0559
     65 H33        -4.5181   -9.7824    4.4273 H         1 <0>         0.0575
     66 H34        -5.8874   -9.6627    3.2963 H         1 <0>         0.0578
     67 H35        -4.3826  -10.4674    2.7900 H         1 <0>         0.0573
     68 H36        -1.2091   -2.0455    2.6407 H         1 <0>         0.0650
     69 H37        -0.2496   -2.7951    3.9390 H         1 <0>         0.0776
     70 H38         0.4130   -2.6893    2.2904 H         1 <0>         0.0647
     71 H39        -2.6269   -5.4297    3.4413 H         1 <0>         0.1025
     72 H40        -2.3273   -3.8961    4.2936 H         1 <0>         0.0714
     73 H41        -3.2296   -3.9000    2.7593 H         1 <0>         0.0734
     74 H42         0.8684   -5.0546    2.5851 H         1 <0>         0.0596
     75 H43        -0.1152   -5.4025    4.0272 H         1 <0>         0.0708
     76 H44        -0.4506   -6.2465    2.4964 H         1 <0>         0.0964
@<TRIPOS>BOND
     1    1    2 1
     2    1   38 1
     3    1   39 1
     4    1   40 1
     5    2    7 ar
     6    2    3 ar
     7    3    4 ar
     8    3   41 1
     9    4    5 ar
    10    4   42 1
    11    5    6 ar
    12    5    8 1
    13    6    7 ar
    14    6   43 1
    15    7   44 1
    16    8    9 1
    17    8   10 1
    18    8   17 1
    19   10   11 2
    20   10   12 am
    21   12   13 1
    22   12   45 1
    23   13   14 1
    24   13   15 1
    25   13   16 1
    26   14   46 1
    27   14   47 1
    28   14   48 1
    29   15   49 1
    30   15   50 1
    31   15   51 1
    32   16   52 1
    33   16   53 1
    34   16   54 1
    35   17   18 am
    36   17   34 1
    37   18   19 2
    38   18   20 1
    39   20   21 1
    40   20   28 1
    41   20   22 1
    42   22   23 1
    43   22   55 1
    44   22   56 1
    45   23   24 1
    46   23   31 1
    47   23   25 1
    48   25   26 1
    49   25   57 1
    50   25   58 1
    51   26   27 1
    52   26   28 1
    53   26   31 1
    54   28   29 1
    55   28   30 1
    56   30   59 1
    57   30   60 1
    58   30   61 1
    59   31   32 1
    60   31   33 1
    61   32   62 1
    62   32   63 1
    63   32   64 1
    64   33   65 1
    65   33   66 1
    66   33   67 1
    67   34   35 1
    68   34   36 1
    69   34   37 1
    70   35   68 1
    71   35   69 1
    72   35   70 1
    73   36   71 1
    74   36   72 1
    75   36   73 1
    76   37   74 1
    77   37   75 1
    78   37   76 1
