@<TRIPOS>MOLECULE
ZINC06893396
   46    49     0     0     0
SMALL
USER_CHARGES
2-(3,4-dihydro-1H-isoquinolin-2-yl)-3-(4-isopropylphenyl)-cyclobut-2-ene-1,4-dione
@<TRIPOS>ATOM
      1 C1         -5.0219    5.2060   -1.3048 C.3       1 <0>        -0.1459
      2 C2         -4.2341    5.3044    0.0031 C.3       1 <0>        -0.0631
      3 C3         -5.1719    5.0454    1.1840 C.3       1 <0>        -0.1457
      4 C4         -3.1307    4.2780    0.0034 C.ar      1 <0>        -0.0454
      5 C5         -1.8120    4.6848    0.1091 C.ar      1 <0>        -0.1251
      6 C6         -0.7969    3.7515    0.1096 C.ar      1 <0>        -0.0760
      7 C7         -1.1025    2.3916    0.0035 C.ar      1 <0>        -0.0614
      8 C8         -2.4364    1.9888   -0.1078 C.ar      1 <0>        -0.0662
      9 C9         -3.4411    2.9334   -0.1016 C.ar      1 <0>        -0.1239
     10 C10        -0.0226    1.3872    0.0028 C.2       1 <0>        -0.0378
     11 C11         0.0079   -0.0099    0.0062 C.2       1 <0>         0.0507
     12 C12         1.4798   -0.0200   -0.0048 C.2       1 <0>         0.3132
     13 O1          2.3471   -0.8715   -0.0094 O.2       1 <0>        -0.3851
     14 C13         1.4422    1.4614   -0.0084 C.2       1 <0>         0.3467
     15 O2          2.2688    2.3535   -0.0172 O.2       1 <0>        -0.3786
     16 N1         -0.9516   -0.9839    0.0156 N.pl3     1 <0>        -0.4650
     17 C14        -0.9401   -1.7233    1.2878 C.3       1 <0>         0.0520
     18 C15        -2.2357   -2.5282    1.3932 C.3       1 <0>        -0.0749
     19 C16        -2.4505   -3.3243    0.1316 C.ar      1 <0>        -0.0703
     20 C17        -3.3579   -4.3727    0.1576 C.ar      1 <0>        -0.1178
     21 C18        -3.5908   -5.1217   -0.9783 C.ar      1 <0>        -0.1154
     22 C19        -2.9156   -4.8254   -2.1478 C.ar      1 <0>        -0.1190
     23 C20        -2.0106   -3.7837   -2.1741 C.ar      1 <0>        -0.1114
     24 C21        -1.7745   -3.0306   -1.0331 C.ar      1 <0>        -0.0808
     25 C22        -0.7746   -1.9068   -1.1100 C.3       1 <0>         0.0930
     26 H1         -5.8200    5.9483   -1.3050 H         1 <0>         0.0611
     27 H2         -4.3538    5.3905   -2.1461 H         1 <0>         0.0572
     28 H3         -5.4530    4.2089   -1.3951 H         1 <0>         0.0583
     29 H4         -3.8030    6.3014    0.0934 H         1 <0>         0.0810
     30 H5         -4.6107    5.1155    2.1158 H         1 <0>         0.0571
     31 H6         -5.9700    5.7878    1.1838 H         1 <0>         0.0610
     32 H7         -5.6030    4.0484    1.0937 H         1 <0>         0.0583
     33 H8         -1.5775    5.7358    0.1911 H         1 <0>         0.1300
     34 H9          0.2317    4.0704    0.1915 H         1 <0>         0.1325
     35 H10        -2.6798    0.9401   -0.1947 H         1 <0>         0.1413
     36 H11        -4.4724    2.6234   -0.1838 H         1 <0>         0.1292
     37 H12        -0.0859   -2.4000    1.3104 H         1 <0>         0.0584
     38 H13        -0.8767   -1.0209    2.1190 H         1 <0>         0.0904
     39 H14        -3.0742   -1.8470    1.5384 H         1 <0>         0.0899
     40 H15        -2.1699   -3.2075    2.2430 H         1 <0>         0.0883
     41 H16        -3.8853   -4.6041    1.0712 H         1 <0>         0.1238
     42 H17        -4.2984   -5.9372   -0.9533 H         1 <0>         0.1239
     43 H18        -3.0962   -5.4078   -3.0392 H         1 <0>         0.1245
     44 H19        -1.4833   -3.5535   -3.0881 H         1 <0>         0.1234
     45 H20        -0.9141   -1.3645   -2.0452 H         1 <0>         0.0978
     46 H21         0.2335   -2.3203   -1.0810 H         1 <0>         0.0657
@<TRIPOS>BOND
     1    1    2 1
     2    1   26 1
     3    1   27 1
     4    1   28 1
     5    2    3 1
     6    2    4 1
     7    2   29 1
     8    3   30 1
     9    3   31 1
    10    3   32 1
    11    4    9 ar
    12    4    5 ar
    13    5    6 ar
    14    5   33 1
    15    6    7 ar
    16    6   34 1
    17    7    8 ar
    18    7   10 1
    19    8    9 ar
    20    8   35 1
    21    9   36 1
    22   10   14 1
    23   10   11 2
    24   11   12 1
    25   11   16 1
    26   12   13 2
    27   12   14 1
    28   14   15 2
    29   16   25 1
    30   16   17 1
    31   17   18 1
    32   17   37 1
    33   17   38 1
    34   18   19 1
    35   18   39 1
    36   18   40 1
    37   19   24 ar
    38   19   20 ar
    39   20   21 ar
    40   20   41 1
    41   21   22 ar
    42   21   42 1
    43   22   23 ar
    44   22   43 1
    45   23   24 ar
    46   23   44 1
    47   24   25 1
    48   25   45 1
    49   25   46 1
