@<TRIPOS>MOLECULE
ZINC42469420
   34    36     0     0     0
SMALL
USER_CHARGES

@<TRIPOS>ATOM
      1 C1          0.0397    1.2417   -0.2198 C.ar      1 <0>        -0.0498
      2 C2          1.1938    1.9931   -0.1161 C.ar      1 <0>        -0.1966
      3 C3          2.4325    1.3643   -0.1162 C.ar      1 <0>         0.2327
      4 C4          2.5057   -0.0190   -0.2209 C.ar      1 <0>        -0.1926
      5 C5          1.3477   -0.7643   -0.3243 C.ar      1 <0>        -0.0499
      6 C6          0.1162   -0.1351   -0.3238 C.ar      1 <0>        -0.1672
      7 C7         -1.1453   -0.9518   -0.4364 C.3       1 <0>         0.0179
      8 Cl1        -1.5825   -1.1459   -2.1748 Cl        1 <0>        -0.1862
      9 N1          3.6017    2.1212   -0.0120 N.pl3     1 <0>        -0.5902
     10 C8          3.5222    3.5789    0.1107 C.3       1 <0>         0.1734
     11 C9          3.4512    3.9573    1.5676 C.2       1 <0>        -0.1431
     12 C10         2.2301    4.1800    2.1759 C.2       1 <0>        -0.1469
     13 C11         2.2014    4.5189    3.4880 C.2       1 <0>        -0.1708
     14 S1          3.9375    4.5317    3.9042 S.3       1 <0>         0.0353
     15 C12         4.5836    4.0789    2.3027 C.2       1 <0>        -0.1610
     16 C13         4.9076    1.4574   -0.0252 C.3       1 <0>         0.0890
     17 C14         6.1475    2.3337    0.1637 C.3       1 <0>        -0.1914
     18 C15         5.8321    1.7406   -1.2109 C.3       1 <0>        -0.1938
     19 H1         -0.9238    1.7296   -0.2152 H         1 <0>         0.1226
     20 H2          1.1334    3.0683   -0.0352 H         1 <0>         0.1236
     21 H3          3.4671   -0.5109   -0.2217 H         1 <0>         0.1236
     22 H4          1.4039   -1.8398   -0.4056 H         1 <0>         0.1228
     23 H5         -0.9838   -1.9333    0.0094 H         1 <0>         0.0970
     24 H6         -1.9550   -0.4437    0.0873 H         1 <0>         0.0969
     25 H7          4.4065    4.0301   -0.3393 H         1 <0>         0.0855
     26 H8          2.6300    3.9385   -0.4020 H         1 <0>         0.0863
     27 H9          1.3126    4.0857    1.6140 H         1 <0>         0.1333
     28 H10         1.3494    4.7275    4.1181 H         1 <0>         0.1854
     29 H11         5.6104    3.9393    1.9982 H         1 <0>         0.1848
     30 H12         4.9297    0.4548    0.4020 H         1 <0>         0.1247
     31 H13         5.9915    3.4041    0.2978 H         1 <0>         0.1011
     32 H14         6.9856    1.9078    0.7154 H         1 <0>         0.1050
     33 H15         6.4627    0.9245   -1.5637 H         1 <0>         0.1018
     34 H16         5.4687    2.4208   -1.9812 H         1 <0>         0.0967
@<TRIPOS>BOND
     1    1    6 ar
     2    1    2 ar
     3    1   19 1
     4    2    3 ar
     5    2   20 1
     6    3    4 ar
     7    3    9 1
     8    4    5 ar
     9    4   21 1
    10    5    6 ar
    11    5   22 1
    12    6    7 1
    13    7    8 1
    14    7   23 1
    15    7   24 1
    16    9   10 1
    17    9   16 1
    18   10   11 1
    19   10   25 1
    20   10   26 1
    21   11   15 2
    22   11   12 1
    23   12   13 2
    24   12   27 1
    25   13   14 1
    26   13   28 1
    27   14   15 1
    28   15   29 1
    29   16   18 1
    30   16   17 1
    31   16   30 1
    32   17   18 1
    33   17   31 1
    34   17   32 1
    35   18   33 1
    36   18   34 1
