@<TRIPOS>MOLECULE
ZINC40787109
   46    49     0     0     0
SMALL
USER_CHARGES

@<TRIPOS>ATOM
      1 C1         -2.6063   -0.5336   -5.2179 C.3       1 <0>        -0.0767
      2 C2         -1.1400   -0.8813   -5.2252 C.2       1 <0>        -0.0079
      3 C3         -0.1228   -0.0011   -5.2261 C.2       1 <0>        -0.2140
      4 C4          1.0724   -0.7564   -5.2338 C.2       1 <0>        -0.1941
      5 C5          0.7141   -2.0529   -5.2371 C.2       1 <0>        -0.0198
      6 O1         -0.6271   -2.1226   -5.2260 O.3       1 <0>        -0.1732
      7 C6          1.6576   -3.2280   -5.2460 C.3       1 <0>        -0.0490
      8 C7          1.9836   -3.6312   -3.8066 C.3       1 <0>         0.1256
      9 N1          2.9008   -4.7735   -3.8152 N.am      1 <0>        -0.7166
     10 C8          3.3282   -5.3034   -2.6521 C.2       1 <0>         0.5932
     11 O2          3.0269   -4.7773   -1.5964 O.2       1 <0>        -0.5369
     12 C9          4.1550   -6.5122   -2.6581 C.2       1 <0>         0.0061
     13 C10         4.6516   -7.1434   -3.7775 C.2       1 <0>        -0.0910
     14 C11         5.3775   -8.2419   -3.3449 C.2       1 <0>        -0.1884
     15 C12         5.3374   -8.3020   -1.9470 C.2       1 <0>         0.0496
     16 N2          4.5738   -7.2087   -1.5439 N.pl3     1 <0>        -0.3974
     17 C13         4.2621   -6.8567   -0.1564 C.3       1 <0>         0.1337
     18 C14         3.0528   -7.6321    0.2990 C.ar      1 <0>        -0.0860
     19 C15         1.7953   -7.0632    0.2152 C.ar      1 <0>        -0.1025
     20 C16         0.6852   -7.7732    0.6325 C.ar      1 <0>        -0.0928
     21 C17         0.8311   -9.0527    1.1346 C.ar      1 <0>        -0.1430
     22 C18         2.0896   -9.6233    1.2190 C.ar      1 <0>         0.0964
     23 C19         3.2004   -8.9133    0.7949 C.ar      1 <0>        -0.1346
     24 F1          2.2334  -10.8736    1.7100 F         1 <0>        -0.1372
     25 C20         6.0323   -9.3687   -1.3612 C.2       1 <0>        -0.1408
     26 C21         6.6856  -10.2589   -2.1379 C.2       1 <0>        -0.1450
     27 S1          6.3649   -9.6496   -3.7846 S.3       1 <0>         0.0812
     28 H1         -3.1969   -1.4497   -5.2138 H         1 <0>         0.0761
     29 H2         -2.8366    0.0512   -4.3273 H         1 <0>         0.0868
     30 H3         -2.8459    0.0492   -6.1073 H         1 <0>         0.0867
     31 H4         -0.2036    1.0758   -5.2224 H         1 <0>         0.1490
     32 H5          2.0798   -0.3670   -5.2368 H         1 <0>         0.1492
     33 H6          1.1887   -4.0665   -5.7609 H         1 <0>         0.0908
     34 H7          2.5766   -2.9521   -5.7631 H         1 <0>         0.1029
     35 H8          2.4525   -2.7926   -3.2917 H         1 <0>         0.0794
     36 H9          1.0646   -3.9070   -3.2895 H         1 <0>         0.0758
     37 H10         3.2005   -5.1485   -4.6581 H         1 <0>         0.4060
     38 H11         4.5027   -6.8385   -4.8028 H         1 <0>         0.1550
     39 H12         5.1120   -7.1021    0.4804 H         1 <0>         0.0985
     40 H13         4.0550   -5.7886   -0.0903 H         1 <0>         0.1310
     41 H14         1.6805   -6.0633   -0.1764 H         1 <0>         0.1411
     42 H15        -0.2965   -7.3279    0.5666 H         1 <0>         0.1363
     43 H16        -0.0364   -9.6069    1.4613 H         1 <0>         0.1381
     44 H17         4.1822   -9.3591    0.8562 H         1 <0>         0.1328
     45 H18         6.0454   -9.4786   -0.2869 H         1 <0>         0.1303
     46 H19         7.2590  -11.1235   -1.8379 H         1 <0>         0.1953
@<TRIPOS>BOND
     1    1    2 1
     2    1   28 1
     3    1   29 1
     4    1   30 1
     5    2    6 1
     6    2    3 2
     7    3    4 1
     8    3   31 1
     9    4    5 2
    10    4   32 1
    11    5    6 1
    12    5    7 1
    13    7    8 1
    14    7   33 1
    15    7   34 1
    16    8    9 1
    17    8   35 1
    18    8   36 1
    19    9   10 am
    20    9   37 1
    21   10   11 2
    22   10   12 1
    23   12   16 1
    24   12   13 2
    25   13   14 1
    26   13   38 1
    27   14   27 1
    28   14   15 2
    29   15   16 1
    30   15   25 1
    31   16   17 1
    32   17   18 1
    33   17   39 1
    34   17   40 1
    35   18   23 ar
    36   18   19 ar
    37   19   20 ar
    38   19   41 1
    39   20   21 ar
    40   20   42 1
    41   21   22 ar
    42   21   43 1
    43   22   23 ar
    44   22   24 1
    45   23   44 1
    46   25   26 2
    47   25   45 1
    48   26   27 1
    49   26   46 1
