@<TRIPOS>MOLECULE
ZINC66163368
   43    44     0     0     0
SMALL
USER_CHARGES

@<TRIPOS>ATOM
      1 C1         -0.0187    1.5258    0.0104 C.3       1 <0>        -0.1542
      2 C2          0.0021   -0.0041    0.0020 C.3       1 <0>        -0.0936
      3 C3          0.7421   -0.5109    1.2415 C.3       1 <0>        -0.1481
      4 C4         -1.4333   -0.5336    0.0129 C.3       1 <0>        -0.1153
      5 C5         -2.1352   -0.1312   -1.2857 C.3       1 <0>         0.0566
      6 O1         -3.4759   -0.6258   -1.2755 O.3       1 <0>        -0.3137
      7 C6         -4.2423   -0.3534   -2.3643 C.ar      1 <0>         0.1444
      8 C7         -3.7130    0.3701   -3.4231 C.ar      1 <0>        -0.2118
      9 C8         -4.4940    0.6453   -4.5289 C.ar      1 <0>        -0.0556
     10 C9         -5.8022    0.2008   -4.5807 C.ar      1 <0>        -0.1540
     11 C10        -6.3321   -0.5201   -3.5265 C.ar      1 <0>        -0.0566
     12 C11        -5.5534   -0.8032   -2.4212 C.ar      1 <0>        -0.1548
     13 C12        -6.6520    0.5028   -5.7880 C.3       1 <0>         0.1663
     14 N1         -6.5049   -0.5738   -6.7705 N.pl3     1 <0>        -0.7286
     15 C13        -7.2019   -0.5155   -7.9812 C.ar      1 <0>         0.2475
     16 C14        -8.0295    0.5651   -8.2558 C.ar      1 <0>        -0.1735
     17 C15        -8.7175    0.6202   -9.4534 C.ar      1 <0>         0.0260
     18 C16        -8.5822   -0.4014  -10.3788 C.ar      1 <0>        -0.0835
     19 C17        -7.7586   -1.4794  -10.1074 C.ar      1 <0>        -0.0380
     20 C18        -7.0632   -1.5362   -8.9141 C.ar      1 <0>        -0.1045
     21 Cl1        -6.0239   -2.8854   -8.5777 Cl        1 <0>        -0.0518
     22 Cl2        -9.4481   -0.3295  -11.8817 Cl        1 <0>        -0.0447
     23 Cl3        -9.7525    1.9707   -9.7977 Cl        1 <0>        -0.0386
     24 H1          1.0039    1.9031    0.0027 H         1 <0>         0.0585
     25 H2         -0.5459    1.8868   -0.8726 H         1 <0>         0.0545
     26 H3         -0.5289    1.8773    0.9072 H         1 <0>         0.0580
     27 H4          0.5123   -0.3556   -0.8948 H         1 <0>         0.0728
     28 H5          0.2319   -0.1594    2.1383 H         1 <0>         0.0571
     29 H6          0.7568   -1.6008    1.2356 H         1 <0>         0.0568
     30 H7          1.7647   -0.1336    1.2338 H         1 <0>         0.0586
     31 H8         -1.4190   -1.6203    0.0965 H         1 <0>         0.0750
     32 H9         -1.9701   -0.1109    0.8621 H         1 <0>         0.0755
     33 H10        -2.1495    0.9555   -1.3693 H         1 <0>         0.0662
     34 H11        -1.5984   -0.5539   -2.1349 H         1 <0>         0.0627
     35 H12        -2.6914    0.7182   -3.3828 H         1 <0>         0.1300
     36 H13        -4.0824    1.2085   -5.3534 H         1 <0>         0.1273
     37 H14        -7.3544   -0.8659   -3.5692 H         1 <0>         0.1321
     38 H15        -5.9664   -1.3701   -1.5999 H         1 <0>         0.1340
     39 H16        -7.6968    0.5796   -5.4869 H         1 <0>         0.0753
     40 H17        -6.3315    1.4456   -6.2313 H         1 <0>         0.0744
     41 H18        -5.9239   -1.3271   -6.5812 H         1 <0>         0.4087
     42 H19        -8.1359    1.3616   -7.5343 H         1 <0>         0.1504
     43 H20        -7.6554   -2.2750  -10.8303 H         1 <0>         0.1523
@<TRIPOS>BOND
     1    1    2 1
     2    1   24 1
     3    1   25 1
     4    1   26 1
     5    2    3 1
     6    2    4 1
     7    2   27 1
     8    3   28 1
     9    3   29 1
    10    3   30 1
    11    4    5 1
    12    4   31 1
    13    4   32 1
    14    5    6 1
    15    5   33 1
    16    5   34 1
    17    6    7 1
    18    7   12 ar
    19    7    8 ar
    20    8    9 ar
    21    8   35 1
    22    9   10 ar
    23    9   36 1
    24   10   11 ar
    25   10   13 1
    26   11   12 ar
    27   11   37 1
    28   12   38 1
    29   13   14 1
    30   13   39 1
    31   13   40 1
    32   14   15 1
    33   14   41 1
    34   15   20 ar
    35   15   16 ar
    36   16   17 ar
    37   16   42 1
    38   17   18 ar
    39   17   23 1
    40   18   19 ar
    41   18   22 1
    42   19   20 ar
    43   19   43 1
    44   20   21 1
