@<TRIPOS>MOLECULE
ZINC55334331
   27    29     0     0     0
SMALL
USER_CHARGES

@<TRIPOS>ATOM
      1 C1         -0.0166    1.3757    0.0096 C.ar      1 <0>        -0.1050
      2 C2          1.1702    2.0867    0.0021 C.ar      1 <0>        -0.1121
      3 C3          2.3820    1.4203   -0.0135 C.ar      1 <0>        -0.0936
      4 C4          2.4136    0.0397   -0.0217 C.ar      1 <0>        -0.0808
      5 C5          1.2201   -0.6820   -0.0138 C.ar      1 <0>         0.0270
      6 C6          0.0021   -0.0041    0.0020 C.ar      1 <0>        -0.0992
      7 C7          1.2467   -2.1644   -0.0230 C.2       1 <0>        -0.3145
      8 C8          1.2678   -3.0062    1.1099 C.2       1 <0>         0.1940
      9 N1          1.2879   -4.2418    0.6984 N.2       1 <0>        -0.3282
     10 O1          1.2806   -4.2486   -0.7165 O.3       1 <0>        -0.1063
     11 C9          1.2494   -2.9749   -1.1420 C.2       1 <0>         0.3770
     12 N2          1.2278   -2.5535   -2.4548 N.pl3     1 <0>        -0.8074
     13 C10         1.2677   -2.5535    2.5473 C.3       1 <0>        -0.0996
     14 C11         1.4959   -3.6173    3.6230 C.3       1 <0>        -0.1607
     15 C12         0.1050   -3.0092    3.4314 C.3       1 <0>        -0.1554
     16 Br1         4.0711   -0.8702   -0.0444 Br        1 <0>        -0.0438
     17 H1         -0.9598    1.9017    0.0260 H         1 <0>         0.1304
     18 H2          1.1503    3.1665    0.0081 H         1 <0>         0.1319
     19 H3          3.3053    1.9806   -0.0197 H         1 <0>         0.1332
     20 H4         -0.9252   -0.5577    0.0083 H         1 <0>         0.1301
     21 H5          1.2085   -1.6055   -2.6597 H         1 <0>         0.4263
     22 H6          1.2319   -3.2049   -3.1735 H         1 <0>         0.4142
     23 H7          1.6771   -1.5595    2.7272 H         1 <0>         0.1275
     24 H8          1.6461   -4.6446    3.2911 H         1 <0>         0.1047
     25 H9          2.0557   -3.3233    4.5109 H         1 <0>         0.1051
     26 H10        -0.2501   -2.3151    4.1931 H         1 <0>         0.1061
     27 H11        -0.6597   -3.6364    2.9733 H         1 <0>         0.0990
@<TRIPOS>BOND
     1    1    6 ar
     2    1    2 ar
     3    1   17 1
     4    2    3 ar
     5    2   18 1
     6    3    4 ar
     7    3   19 1
     8    4    5 ar
     9    4   16 1
    10    5    6 ar
    11    5    7 1
    12    6   20 1
    13    7   11 2
    14    7    8 1
    15    8    9 2
    16    8   13 1
    17    9   10 1
    18   10   11 1
    19   11   12 1
    20   12   21 1
    21   12   22 1
    22   13   15 1
    23   13   14 1
    24   13   23 1
    25   14   15 1
    26   14   24 1
    27   14   25 1
    28   15   26 1
    29   15   27 1
