@<TRIPOS>MOLECULE
ZINC06729234
   38    39     0     0     0
SMALL
USER_CHARGES
1-[(2,4,6-trimethylphenyl)carbamoylmethyl]triazole-4,5-dicarboxylic acid
@<TRIPOS>ATOM
      1 C1          2.4521    1.2402    0.2330 C.3       1 <0>        -0.1078
      2 C2          1.1107    1.9233    0.1616 C.ar      1 <0>        -0.0910
      3 C3          0.4990    2.1161   -1.0635 C.ar      1 <0>        -0.1213
      4 C4         -0.7279    2.7465   -1.1329 C.ar      1 <0>        -0.0658
      5 C5         -1.3519    3.1779    0.0303 C.ar      1 <0>         0.1440
      6 C6         -0.7352    2.9823    1.2592 C.ar      1 <0>        -0.0767
      7 C7          0.4939    2.3556    1.3213 C.ar      1 <0>        -0.1216
      8 C8         -1.4062    3.4540    2.5234 C.3       1 <0>        -0.1187
      9 N1         -2.5974    3.8121   -0.0360 N.am      1 <0>        -0.6841
     10 C9         -3.6760    3.1347   -0.4765 C.2       1 <0>         0.5204
     11 O1         -3.5870    1.9522   -0.7315 O.2       1 <0>        -0.4962
     12 C10        -4.9927    3.8463   -0.6523 C.3       1 <0>         0.1095
     13 N2         -5.9991    2.8986   -1.1376 N.pl3     1 <0>        -0.2746
     14 C11        -6.8189    2.1372   -0.3587 C.2       1 <0>        -0.0035
     15 C12        -7.5970    1.4010   -1.2496 C.2       1 <0>        -0.0249
     16 N3         -7.1941    1.7682   -2.4768 N.2       1 <0>        -0.2425
     17 N4         -6.2633    2.6475   -2.3707 N.2       1 <0>        -0.1343
     18 C13        -8.6493    0.4187   -0.9133 C.2       1 <0>         0.5234
     19 O2         -8.9113    0.1835    0.2491 O.co2     1 <0>        -0.5690
     20 C14        -6.8708    2.1002    1.1151 C.2       1 <0>         0.5146
     21 O3         -7.6593    1.3664    1.6769 O.co2     1 <0>        -0.5397
     22 C15        -1.3909    2.9618   -2.4690 C.3       1 <0>        -0.1151
     23 H1          3.2438    1.9857    0.1597 H         1 <0>         0.0651
     24 H2          2.5395    0.7094    1.1811 H         1 <0>         0.0633
     25 H3          2.5431    0.5313   -0.5899 H         1 <0>         0.0631
     26 H4          0.9833    1.7773   -1.9675 H         1 <0>         0.1202
     27 H5          0.9741    2.2032    2.2766 H         1 <0>         0.1209
     28 H6         -1.0993    4.4778    2.7375 H         1 <0>         0.0675
     29 H7         -2.4881    3.4182    2.3957 H         1 <0>         0.0816
     30 H8         -1.1165    2.8072    3.3516 H         1 <0>         0.0659
     31 H9         -2.6845    4.7394    0.2351 H         1 <0>         0.4065
     32 H10        -5.3134    4.2586    0.3044 H         1 <0>         0.1549
     33 H11        -4.8757    4.6538   -1.3751 H         1 <0>         0.1138
     34 H12        -2.1120    2.1647   -2.6494 H         1 <0>         0.0821
     35 H13        -1.9044    3.9232   -2.4690 H         1 <0>         0.0639
     36 H14        -0.6356    2.9533   -3.2549 H         1 <0>         0.0612
     37 O4         -9.3175   -0.2155   -1.8961 O.co2     1 <0>        -0.7718
     38 O5         -6.0436    2.8804    1.8383 O.co2     1 <0>        -0.7833
@<TRIPOS>BOND
     1    1    2 1
     2    1   23 1
     3    1   24 1
     4    1   25 1
     5    2    7 ar
     6    2    3 ar
     7    3    4 ar
     8    3   26 1
     9    4    5 ar
    10    4   22 1
    11    5    6 ar
    12    5    9 1
    13    6    7 ar
    14    6    8 1
    15    7   27 1
    16    8   28 1
    17    8   29 1
    18    8   30 1
    19    9   10 am
    20    9   31 1
    21   10   11 2
    22   10   12 1
    23   12   13 1
    24   12   32 1
    25   12   33 1
    26   13   17 1
    27   13   14 1
    28   14   15 2
    29   14   20 1
    30   15   16 1
    31   15   18 1
    32   16   17 2
    33   18   19 2
    34   18   37 1
    35   20   21 2
    36   20   38 1
    37   22   34 1
    38   22   35 1
    39   22   36 1
