@<TRIPOS>MOLECULE
ZINC02776456
   55    58     0     0     0
SMALL
USER_CHARGES
2-(allylBLAHyl)sulfanyl-N-(4-sulfamoylphenyl)-butanamide
@<TRIPOS>ATOM
      1 C1         -0.0395    8.8926    1.8199 C.3       1 <0>        -0.1583
      2 C2          0.4734   10.2883    1.4597 C.3       1 <0>        -0.1027
      3 C3          0.8359   10.3307   -0.0261 C.3       1 <0>        -0.1206
      4 H1         -0.0251   10.0223   -0.6191 H         1 <0>         0.1329
      5 C4          1.2314   11.7342   -0.4068 C.2       1 <0>         0.5312
      6 O1          2.4040   12.0303   -0.4975 O.2       1 <0>        -0.4939
      7 N1          0.2820   12.6603   -0.6466 N.am      1 <0>        -0.6658
      8 C5          0.6472   13.9862   -0.9042 C.ar      1 <0>         0.2133
      9 C6          1.7610   14.5346   -0.2818 C.ar      1 <0>        -0.1466
     10 C7          2.1227   15.8417   -0.5434 C.ar      1 <0>         0.0049
     11 C8          1.3698   16.6080   -1.4141 C.ar      1 <0>        -0.6963
     12 C9          0.2567   16.0667   -2.0307 C.ar      1 <0>         0.0006
     13 C10        -0.1065   14.7583   -1.7784 C.ar      1 <0>        -0.1652
     14 S1          1.8301   18.2775   -1.7390 S.o2      1 <0>         2.7032
     15 O2          3.2200   18.3770   -1.4607 O.2       1 <0>        -0.9629
     16 O3          1.2812   18.6107   -3.0066 O.2       1 <0>        -0.9613
     17 N2          1.0550   19.2250   -0.6237 N.pl3     1 <0>        -1.2482
     18 S2          2.2196    9.2074   -0.3418 S.3       1 <0>         0.1087
     19 C11         2.3030    9.3109   -2.0988 C.ar      1 <0>         0.2564
     20 N3          3.2851    8.6920   -2.7409 N.ar      1 <0>        -0.4796
     21 C12         3.3468    8.7715   -4.0666 C.ar      1 <0>         0.3741
     22 C13         2.3565    9.5172   -4.7390 C.ar      1 <0>         0.0037
     23 C14         2.6759    9.4299   -6.1744 C.ar      1 <0>        -0.0851
     24 C15         2.0816    9.9470   -7.3232 C.ar      1 <0>        -0.0407
     25 C16         2.6358    9.6856   -8.5578 C.ar      1 <0>        -0.1384
     26 C17         3.7749    8.9021   -8.6597 C.ar      1 <0>        -0.0670
     27 C18         4.3733    8.3845   -7.5307 C.ar      1 <0>        -0.1307
     28 C19         3.8322    8.6414   -6.2753 C.ar      1 <0>         0.1541
     29 N4          4.2143    8.2595   -4.9994 N.pl3     1 <0>        -0.4708
     30 C20         5.3790    7.4266   -4.6896 C.3       1 <0>         0.1401
     31 C21         6.5833    8.3068   -4.4754 C.2       1 <0>        -0.1954
     32 C22         7.2702    8.2178   -3.3635 C.2       1 <0>        -0.1458
     33 N5          1.4015   10.1121   -4.0396 N.ar      1 <0>        -0.1255
     34 N6          1.3810   10.0079   -2.7550 N.ar      1 <0>        -0.3110
     35 H2         -0.8628    8.6258    1.1573 H         1 <0>         0.0643
     36 H3          0.7674    8.1685    1.7065 H         1 <0>         0.0664
     37 H4         -0.3883    8.8889    2.8526 H         1 <0>         0.0697
     38 H5          1.3570   10.5158    2.0560 H         1 <0>         0.0838
     39 H6         -0.3032   11.0250    1.6654 H         1 <0>         0.0901
     40 H7         -0.6545   12.4076   -0.6405 H         1 <0>         0.4175
     41 H8          2.3464   13.9383    0.4023 H         1 <0>         0.1451
     42 H9          2.9919   16.2671   -0.0639 H         1 <0>         0.1460
     43 H10        -0.3291   16.6677   -2.7105 H         1 <0>         0.1477
     44 H11        -0.9756   14.3359   -2.2609 H         1 <0>         0.1396
     45 H12         1.4593   20.0558   -0.3284 H         1 <0>         0.4217
     46 H13         0.1967   18.9491   -0.2657 H         1 <0>         0.4169
     47 H14         1.1918   10.5542   -7.2464 H         1 <0>         0.1370
     48 H15         2.1787   10.0891   -9.4492 H         1 <0>         0.1371
     49 H16         4.1998    8.6991   -9.6316 H         1 <0>         0.1390
     50 H17         5.2632    7.7793   -7.6211 H         1 <0>         0.1339
     51 H18         5.1838    6.8513   -3.7846 H         1 <0>         0.1016
     52 H19         5.5696    6.7455   -5.5190 H         1 <0>         0.1046
     53 H20         6.8801    9.0109   -5.2386 H         1 <0>         0.1161
     54 H21         8.1333    8.8486   -3.2100 H         1 <0>         0.1070
     55 H22         6.9734    7.5137   -2.6003 H         1 <0>         0.1035
@<TRIPOS>BOND
     1    1    2 1
     2    1   35 1
     3    1   36 1
     4    1   37 1
     5    2    3 1
     6    2   38 1
     7    2   39 1
     8    3    4 1
     9    3    5 1
    10    3   18 1
    11    5    6 2
    12    5    7 am
    13    7    8 1
    14    7   40 1
    15    8   13 ar
    16    8    9 ar
    17    9   10 ar
    18    9   41 1
    19   10   11 ar
    20   10   42 1
    21   11   12 ar
    22   11   14 1
    23   12   13 ar
    24   12   43 1
    25   13   44 1
    26   14   15 2
    27   14   16 2
    28   14   17 1
    29   17   45 1
    30   17   46 1
    31   18   19 1
    32   19   34 ar
    33   19   20 ar
    34   20   21 ar
    35   21   29 1
    36   21   22 ar
    37   22   23 1
    38   22   33 ar
    39   23   28 ar
    40   23   24 ar
    41   24   25 ar
    42   24   47 1
    43   25   26 ar
    44   25   48 1
    45   26   27 ar
    46   26   49 1
    47   27   28 ar
    48   27   50 1
    49   28   29 1
    50   29   30 1
    51   30   31 1
    52   30   51 1
    53   30   52 1
    54   31   32 2
    55   31   53 1
    56   32   54 1
    57   32   55 1
    58   33   34 ar
