@<TRIPOS>MOLECULE
ZINC60380019
   36    36     0     0     0
SMALL
USER_CHARGES

@<TRIPOS>ATOM
      1 C1         -0.0184    1.5028    0.0103 C.3       1 <0>        -0.1390
      2 C2          0.0021   -0.0041    0.0020 C.2       1 <0>        -0.0438
      3 C3          0.5968   -0.6669    0.9910 C.2       1 <0>        -0.2070
      4 C4          0.6167   -2.1363    0.9829 C.2       1 <0>         0.4970
      5 O1          0.0901   -2.7461    0.0731 O.2       1 <0>        -0.5119
      6 O2          1.2192   -2.8077    1.9846 O.3       1 <0>        -0.3261
      7 C5          1.2005   -4.2347    1.9123 C.3       1 <0>         0.0438
      8 H1          0.3010   -4.5603    1.3899 H         1 <0>         0.1127
      9 C6          2.4360   -4.7231    1.1535 C.3       1 <0>        -0.1674
     10 C7          1.2075   -4.8084    3.3058 C.2       1 <0>         0.4007
     11 O3          1.4978   -4.1047    4.2497 O.2       1 <0>        -0.4255
     12 C8          0.8621   -6.2227    3.5211 C.ar      1 <0>        -0.1694
     13 C9          0.5323   -7.0390    2.4343 C.ar      1 <0>        -0.0776
     14 C10         0.2102   -8.3630    2.6442 C.ar      1 <0>        -0.1273
     15 C11         0.2127   -8.8849    3.9263 C.ar      1 <0>        -0.0503
     16 C12         0.5374   -8.0836    5.0067 C.ar      1 <0>        -0.0980
     17 C13         0.8674   -6.7587    4.8126 C.ar      1 <0>        -0.0528
     18 C14         0.5360   -8.6616    6.3984 C.3       1 <0>        -0.1200
     19 C15        -0.1405  -10.3332    4.1467 C.3       1 <0>        -0.1260
     20 H2          1.0042    1.8801    0.0026 H         1 <0>         0.0820
     21 H3         -0.5455    1.8639   -0.8728 H         1 <0>         0.0745
     22 H4         -0.5286    1.8543    0.9071 H         1 <0>         0.0819
     23 H5         -0.4659   -0.5460   -0.8065 H         1 <0>         0.1293
     24 H6          1.0648   -0.1250    1.7995 H         1 <0>         0.1415
     25 H7          2.4309   -4.3082    0.1456 H         1 <0>         0.0773
     26 H8          3.3355   -4.3975    1.6759 H         1 <0>         0.0742
     27 H9          2.4218   -5.8117    1.0984 H         1 <0>         0.0846
     28 H10         0.5296   -6.6332    1.4335 H         1 <0>         0.1328
     29 H11        -0.0450   -8.9946    1.8061 H         1 <0>         0.1321
     30 H12         1.1250   -6.1356    5.6564 H         1 <0>         0.1357
     31 H13         1.5248   -9.0588    6.6279 H         1 <0>         0.0744
     32 H14         0.2825   -7.8811    7.1158 H         1 <0>         0.0693
     33 H15        -0.2003   -9.4631    6.4582 H         1 <0>         0.0741
     34 H16         0.7634  -10.9399    4.0931 H         1 <0>         0.0779
     35 H17        -0.5989  -10.4501    5.1287 H         1 <0>         0.0755
     36 H18        -0.8417  -10.6573    3.3776 H         1 <0>         0.0709
@<TRIPOS>BOND
     1    1    2 1
     2    1   20 1
     3    1   21 1
     4    1   22 1
     5    2    3 2
     6    2   23 1
     7    3    4 1
     8    3   24 1
     9    4    5 2
    10    4    6 1
    11    6    7 1
    12    7    8 1
    13    7    9 1
    14    7   10 1
    15    9   25 1
    16    9   26 1
    17    9   27 1
    18   10   11 2
    19   10   12 1
    20   12   17 ar
    21   12   13 ar
    22   13   14 ar
    23   13   28 1
    24   14   15 ar
    25   14   29 1
    26   15   16 ar
    27   15   19 1
    28   16   17 ar
    29   16   18 1
    30   17   30 1
    31   18   31 1
    32   18   32 1
    33   18   33 1
    34   19   34 1
    35   19   35 1
    36   19   36 1
