@<TRIPOS>MOLECULE
ZINC36691150
   51    54     0     0     0
SMALL
USER_CHARGES

@<TRIPOS>ATOM
      1 C1         -0.0321    1.5409    0.2007 C.3       1 <0>        -0.1487
      2 C2         -0.0398    0.0114    0.1606 C.3       1 <0>        -0.0836
      3 C3          0.6396   -0.4615   -1.0987 C.ar      1 <0>        -0.0637
      4 C4         -0.0941   -0.6557   -2.2603 C.ar      1 <0>        -0.1041
      5 C5          0.4990   -1.0851   -3.4185 C.ar      1 <0>        -0.0648
      6 C6          1.8882   -1.3455   -3.4655 C.ar      1 <0>         0.0959
      7 C7          2.6031   -1.1369   -2.2640 C.ar      1 <0>        -0.1740
      8 C8          2.0013   -0.7010   -1.1099 C.ar      1 <0>        -0.0591
      9 S1          4.2630   -1.5628   -2.7329 S.3       1 <0>         0.0922
     10 C9          3.9158   -1.9771   -4.4365 C.2       1 <0>         0.3568
     11 N1          2.6222   -1.7697   -4.5168 N.2       1 <0>        -0.5389
     12 N2          4.7896   -2.4079   -5.4215 N.am      1 <0>        -0.4996
     13 C10         4.2907   -2.6955   -6.7685 C.3       1 <0>         0.1582
     14 C11         3.9641   -4.1624   -6.8807 C.ar      1 <0>         0.0913
     15 C12         2.6699   -4.5933   -6.6568 C.ar      1 <0>        -0.1386
     16 C13         2.3801   -5.9448   -6.7625 C.ar      1 <0>        -0.0743
     17 C14         3.4075   -6.8164   -7.0909 C.ar      1 <0>        -0.1593
     18 C15         4.6769   -6.3124   -7.3004 C.ar      1 <0>         0.0999
     19 N3          4.9151   -5.0194   -7.1965 N.ar      1 <0>        -0.4777
     20 C16         6.0986   -2.5624   -5.1404 C.2       1 <0>         0.5250
     21 O1          6.4973   -2.4090   -4.0055 O.2       1 <0>        -0.4831
     22 C17         7.0668   -2.9259   -6.2365 C.3       1 <0>        -0.1071
     23 C18         8.4716   -2.9116   -5.6911 C.ar      1 <0>        -0.0215
     24 C19         9.2159   -1.7473   -5.7290 C.ar      1 <0>        -0.1038
     25 C20        10.5045   -1.7342   -5.2287 C.ar      1 <0>        -0.0517
     26 C21        11.0485   -2.8852   -4.6900 C.ar      1 <0>        -0.0460
     27 C22        10.3039   -4.0492   -4.6513 C.ar      1 <0>        -0.0517
     28 C23         9.0138   -4.0612   -5.1477 C.ar      1 <0>        -0.0976
     29 N4         12.4287   -2.8713   -4.1552 N.pl3     1 <0>         0.0324
     30 O2         13.0801   -1.8534   -4.1894 O.2       1 <0>        -0.1567
     31 O3         12.9045   -3.8780   -3.6841 O.3       1 <0>        -0.1569
     32 H1          0.9971    1.8995    0.1864 H         1 <0>         0.0564
     33 H2         -0.5644    1.9298   -0.6673 H         1 <0>         0.0573
     34 H3         -0.5234    1.8830    1.1115 H         1 <0>         0.0613
     35 H4          0.4926   -0.3775    1.0287 H         1 <0>         0.0756
     36 H5         -1.0690   -0.3472    0.1749 H         1 <0>         0.0775
     37 H6         -1.1570   -0.4643   -2.2512 H         1 <0>         0.1332
     38 H7         -0.1012   -1.2265   -4.3052 H         1 <0>         0.1319
     39 H8          2.5870   -0.5503   -0.2151 H         1 <0>         0.1314
     40 H9          3.3921   -2.1079   -6.9563 H         1 <0>         0.1207
     41 H10         5.0542   -2.4362   -7.5018 H         1 <0>         0.1154
     42 H11         1.8944   -3.8860   -6.4024 H         1 <0>         0.1418
     43 H12         1.3781   -6.3102   -6.5927 H         1 <0>         0.1382
     44 H13         3.2178   -7.8758   -7.1815 H         1 <0>         0.1392
     45 H14         5.4825   -6.9847   -7.5566 H         1 <0>         0.1616
     46 H15         6.8331   -3.9221   -6.6122 H         1 <0>         0.1447
     47 H16         6.9848   -2.2030   -7.0482 H         1 <0>         0.1205
     48 H17         8.7908   -0.8481   -6.1499 H         1 <0>         0.1470
     49 H18        11.0862   -0.8248   -5.2590 H         1 <0>         0.1556
     50 H19        10.7291   -4.9485   -4.2308 H         1 <0>         0.1554
     51 H20         8.4307   -4.9696   -5.1141 H         1 <0>         0.1465
@<TRIPOS>BOND
     1    1    2 1
     2    1   32 1
     3    1   33 1
     4    1   34 1
     5    2    3 1
     6    2   35 1
     7    2   36 1
     8    3    8 ar
     9    3    4 ar
    10    4    5 ar
    11    4   37 1
    12    5    6 ar
    13    5   38 1
    14    6   11 1
    15    6    7 ar
    16    7    8 ar
    17    7    9 1
    18    8   39 1
    19    9   10 1
    20   10   11 2
    21   10   12 1
    22   12   13 1
    23   12   20 am
    24   13   14 1
    25   13   40 1
    26   13   41 1
    27   14   19 ar
    28   14   15 ar
    29   15   16 ar
    30   15   42 1
    31   16   17 ar
    32   16   43 1
    33   17   18 ar
    34   17   44 1
    35   18   19 ar
    36   18   45 1
    37   20   21 2
    38   20   22 1
    39   22   23 1
    40   22   46 1
    41   22   47 1
    42   23   28 ar
    43   23   24 ar
    44   24   25 ar
    45   24   48 1
    46   25   26 ar
    47   25   49 1
    48   26   27 ar
    49   26   29 1
    50   27   28 ar
    51   27   50 1
    52   28   51 1
    53   29   30 2
    54   29   31 1
