@<TRIPOS>MOLECULE
ZINC13098387
   44    47     0     0     0
SMALL
USER_CHARGES
ethyl 3-[[4-(3,4-dichlorophenyl)-5-thioxo-1,3,4-thiadiazol-2-yl]sulfanylmethyl]benzofuran-2-carboxylate
@<TRIPOS>ATOM
      1 C1          3.5731    2.0760   -0.0209 C.3       1 <0>        -0.1552
      2 C2          2.3725    1.1276   -0.0145 C.3       1 <0>         0.0617
      3 O1          1.1442    1.9017    0.0013 O.3       1 <0>        -0.3398
      4 C3         -0.0144    1.2116    0.0087 C.2       1 <0>         0.5470
      5 O2          0.0021   -0.0041    0.0020 O.2       1 <0>        -0.4709
      6 C4         -1.2956    1.9283    0.0187 C.2       1 <0>         0.0254
      7 C5         -2.5208    1.3403    0.0213 C.2       1 <0>        -0.0725
      8 C6         -3.4937    2.4317    0.0324 C.ar      1 <0>        -0.1346
      9 C7         -4.8896    2.4920    0.0396 C.ar      1 <0>        -0.0563
     10 C8         -5.5148    3.7066    0.0498 C.ar      1 <0>        -0.1284
     11 C9         -4.7725    4.8800    0.0529 C.ar      1 <0>        -0.0714
     12 C10        -3.3951    4.8423    0.0459 C.ar      1 <0>        -0.1069
     13 C11        -2.7363    3.6180    0.0355 C.ar      1 <0>         0.0790
     14 O3         -1.4347    3.2706    0.0325 O.3       1 <0>        -0.1595
     15 C12        -2.8168   -0.1374    0.0146 C.3       1 <0>        -0.0853
     16 S1         -2.9264   -0.7384    1.7184 S.3       1 <0>         0.1344
     17 C13        -3.2693   -2.4409    1.4208 C.2       1 <0>         0.0685
     18 N1         -3.4520   -3.4077    2.2841 N.2       1 <0>        -0.2433
     19 N2         -3.7168   -4.6874    1.8530 N.pl3     1 <0>        -0.3058
     20 C14        -3.7724   -4.9258    0.5186 C.2       1 <0>         0.2352
     21 S2         -4.0715   -6.3923   -0.3126 S.2       1 <0>        -0.3555
     22 S3         -3.4496   -3.2956   -0.1367 S.3       1 <0>         0.0670
     23 C15        -3.9193   -5.7227    2.7722 C.ar      1 <0>         0.1326
     24 C16        -3.2122   -5.7397    3.9681 C.ar      1 <0>        -0.0762
     25 C17        -3.4136   -6.7624    4.8738 C.ar      1 <0>        -0.0879
     26 C18        -4.3184   -7.7708    4.5914 C.ar      1 <0>        -0.0187
     27 C19        -5.0245   -7.7571    3.4001 C.ar      1 <0>        -0.0172
     28 C20        -4.8315   -6.7321    2.4931 C.ar      1 <0>        -0.0765
     29 Cl1        -6.1584   -9.0240    3.0491 Cl        1 <0>        -0.0266
     30 Cl2        -4.5685   -9.0552    5.7322 Cl        1 <0>        -0.0332
     31 H1          3.5312    2.7092   -0.9071 H         1 <0>         0.0694
     32 H2          3.5482    2.6996    0.8727 H         1 <0>         0.0696
     33 H3          4.4951    1.4948   -0.0328 H         1 <0>         0.0856
     34 H4          2.4144    0.4944    0.8717 H         1 <0>         0.0778
     35 H5          2.3974    0.5039   -0.9082 H         1 <0>         0.0774
     36 H6         -5.4717    1.5823    0.0375 H         1 <0>         0.1346
     37 H7         -6.5937    3.7545    0.0554 H         1 <0>         0.1383
     38 H8         -5.2805    5.8330    0.0606 H         1 <0>         0.1438
     39 H9         -2.8286    5.7617    0.0481 H         1 <0>         0.1419
     40 H10        -3.7634   -0.3160   -0.4953 H         1 <0>         0.1211
     41 H11        -2.0181   -0.6655   -0.5063 H         1 <0>         0.1341
     42 H12        -2.5059   -4.9533    4.1894 H         1 <0>         0.1504
     43 H13        -2.8640   -6.7757    5.8034 H         1 <0>         0.1570
     44 H14        -5.3857   -6.7188    1.5662 H         1 <0>         0.1699
@<TRIPOS>BOND
     1    1    2 1
     2    1   31 1
     3    1   32 1
     4    1   33 1
     5    2    3 1
     6    2   34 1
     7    2   35 1
     8    3    4 1
     9    4    5 2
    10    4    6 1
    11    6   14 1
    12    6    7 2
    13    7    8 1
    14    7   15 1
    15    8   13 ar
    16    8    9 ar
    17    9   10 ar
    18    9   36 1
    19   10   11 ar
    20   10   37 1
    21   11   12 ar
    22   11   38 1
    23   12   13 ar
    24   12   39 1
    25   13   14 1
    26   15   16 1
    27   15   40 1
    28   15   41 1
    29   16   17 1
    30   17   22 1
    31   17   18 2
    32   18   19 1
    33   19   20 1
    34   19   23 1
    35   20   21 2
    36   20   22 1
    37   23   28 ar
    38   23   24 ar
    39   24   25 ar
    40   24   42 1
    41   25   26 ar
    42   25   43 1
    43   26   27 ar
    44   26   30 1
    45   27   28 ar
    46   27   29 1
    47   28   44 1
