@<TRIPOS>MOLECULE
ZINC45622977
   30    31     0     0     0
SMALL
USER_CHARGES

@<TRIPOS>ATOM
      1 C1          0.8156    1.3124   -0.0891 C.3       1 <0>         0.0681
      2 N1          0.4043   -0.0933   -0.0568 N.am      1 <0>        -0.5486
      3 C2          0.5360   -0.8309    1.1177 C.ar      1 <0>         0.3627
      4 C3          0.9546   -0.2000    2.2842 C.ar      1 <0>        -0.2109
      5 C4          1.0812   -0.9443    3.4435 C.ar      1 <0>        -0.0470
      6 C5          0.7836   -2.2996    3.3964 C.ar      1 <0>        -0.2057
      7 C6          0.3732   -2.8606    2.2033 C.ar      1 <0>         0.1340
      8 N2          0.2564   -2.1246    1.1145 N.ar      1 <0>        -0.4790
      9 C7         -0.1016   -0.6730   -1.1634 C.2       1 <0>         0.5440
     10 O1         -0.5394   -1.8058   -1.1101 O.2       1 <0>        -0.4334
     11 C8         -0.1240    0.0684   -2.4414 C.ar      1 <0>        -0.0540
     12 C9          0.9966    0.7924   -2.8507 C.ar      1 <0>        -0.1665
     13 C10         0.9681    1.4849   -4.0508 C.ar      1 <0>         0.2279
     14 C11        -0.1744    1.4574   -4.8429 C.ar      1 <0>        -0.1705
     15 C12        -1.2844    0.7408   -4.4386 C.ar      1 <0>        -0.0437
     16 C13        -1.2649    0.0423   -3.2470 C.ar      1 <0>        -0.1064
     17 Br1        -2.7846   -0.9428   -2.7030 Br        1 <0>        -0.0310
     18 N3          2.0879    2.2114   -4.4649 N.pl3     1 <0>        -0.8707
     19 H1          1.8853    1.3734   -0.2893 H         1 <0>         0.0692
     20 H2          0.2685    1.8331   -0.8750 H         1 <0>         0.0905
     21 H3          0.5990    1.7765    0.8731 H         1 <0>         0.0825
     22 H4          1.1782    0.8566    2.2849 H         1 <0>         0.1374
     23 H5          1.4045   -0.4816    4.3642 H         1 <0>         0.1381
     24 H6          0.8725   -2.9089    4.2836 H         1 <0>         0.1362
     25 H7          0.1406   -3.9144    2.1619 H         1 <0>         0.1597
     26 H8          1.8830    0.8134   -2.2340 H         1 <0>         0.1354
     27 H9         -0.1943    1.9984   -5.7774 H         1 <0>         0.1354
     28 H10        -2.1688    0.7234   -5.0582 H         1 <0>         0.1407
     29 H11         2.8848    2.2309   -3.9123 H         1 <0>         0.4020
     30 H12         2.0681    2.6961   -5.3049 H         1 <0>         0.4036
@<TRIPOS>BOND
     1    1    2 1
     2    1   19 1
     3    1   20 1
     4    1   21 1
     5    2    3 1
     6    2    9 am
     7    3    8 ar
     8    3    4 ar
     9    4    5 ar
    10    4   22 1
    11    5    6 ar
    12    5   23 1
    13    6    7 ar
    14    6   24 1
    15    7    8 ar
    16    7   25 1
    17    9   10 2
    18    9   11 1
    19   11   16 ar
    20   11   12 ar
    21   12   13 ar
    22   12   26 1
    23   13   14 ar
    24   13   18 1
    25   14   15 ar
    26   14   27 1
    27   15   16 ar
    28   15   28 1
    29   16   17 1
    30   18   29 1
    31   18   30 1
