@<TRIPOS>MOLECULE
ZINC53882205
   44    46     0     0     0
SMALL
USER_CHARGES

@<TRIPOS>ATOM
      1 C1          1.4051   -2.2838   -2.5164 C.3       1 <0>        -0.1472
      2 C2          0.6645   -1.9097   -1.2309 C.3       1 <0>        -0.0943
      3 H1         -0.3251   -2.3664   -1.2356 H         1 <0>         0.0685
      4 C3          0.5238   -0.3885   -1.1477 C.3       1 <0>        -0.1129
      5 C4         -0.2168   -0.0143    0.1378 C.3       1 <0>        -0.1507
      6 C5          0.5726   -0.5203    1.3468 C.3       1 <0>         0.1110
      7 H2          1.5623   -0.0636    1.3516 H         1 <0>         0.0550
      8 C6          0.7134   -2.0416    1.2636 C.3       1 <0>        -0.0969
      9 H3         -0.2763   -2.4983    1.2589 H         1 <0>         0.0779
     10 C7          1.4539   -2.4157   -0.0219 C.3       1 <0>        -0.1069
     11 C8          1.5028   -2.5476    2.4727 C.3       1 <0>         0.1352
     12 N1          1.5227   -4.0124    2.4646 N.pl3     1 <0>        -0.6292
     13 C9          0.3886   -4.7775    3.0006 C.3       1 <0>         0.1267
     14 C10         0.9548   -5.9079    3.8699 C.3       1 <0>        -0.1366
     15 C11         1.7775   -6.8454    2.9863 C.3       1 <0>        -0.0717
     16 C12         2.7792   -6.0637    2.1779 C.ar      1 <0>        -0.1534
     17 C13         2.6195   -4.7058    1.9411 C.ar      1 <0>         0.2188
     18 C14         3.5573   -4.0152    1.1818 C.ar      1 <0>        -0.1966
     19 C15         4.6484   -4.6804    0.6590 C.ar      1 <0>        -0.0816
     20 C16         4.8070   -6.0341    0.8918 C.ar      1 <0>        -0.1738
     21 C17         3.8795   -6.7228    1.6563 C.ar      1 <0>        -0.0789
     22 O1         -0.1190   -0.1709    2.5475 O.3       1 <0>        -0.5676
     23 H4          1.5054   -3.3676   -2.5756 H         1 <0>         0.0554
     24 H5          0.8427   -1.9233   -3.3777 H         1 <0>         0.0541
     25 H6          2.3948   -1.8271   -2.5116 H         1 <0>         0.0546
     26 H7          1.5134    0.0683   -1.1429 H         1 <0>         0.0633
     27 H8         -0.0386   -0.0280   -2.0090 H         1 <0>         0.0650
     28 H9         -0.3171    1.0694    0.1971 H         1 <0>         0.0651
     29 H10        -1.2065   -0.4711    0.1331 H         1 <0>         0.0699
     30 H11         1.5542   -3.4994   -0.0811 H         1 <0>         0.0772
     31 H12         2.4436   -1.9589   -0.0171 H         1 <0>         0.0642
     32 H13         2.5242   -2.1701    2.4236 H         1 <0>         0.0732
     33 H14         1.0290   -2.1957    3.3891 H         1 <0>         0.0807
     34 H15        -0.2424   -4.1268    3.6061 H         1 <0>         0.0788
     35 H16        -0.1933   -5.1984    2.1806 H         1 <0>         0.0576
     36 H17         1.5917   -5.4865    4.6476 H         1 <0>         0.0691
     37 H18         0.1353   -6.4625    4.3271 H         1 <0>         0.0767
     38 H19         2.3037   -7.5636    3.6150 H         1 <0>         0.0732
     39 H20         1.1106   -7.3823    2.3118 H         1 <0>         0.0699
     40 H21         3.4321   -2.9579    1.0005 H         1 <0>         0.1266
     41 H22         5.3767   -4.1443    0.0688 H         1 <0>         0.1179
     42 H23         5.6610   -6.5544    0.4840 H         1 <0>         0.1161
     43 H24         4.0075   -7.7801    1.8354 H         1 <0>         0.1181
     44 H25        -0.2444    0.7805    2.6665 H         1 <0>         0.3787
@<TRIPOS>BOND
     1    1    2 1
     2    1   23 1
     3    1   24 1
     4    1   25 1
     5    2    3 1
     6    2   10 1
     7    2    4 1
     8    4    5 1
     9    4   26 1
    10    4   27 1
    11    5    6 1
    12    5   28 1
    13    5   29 1
    14    6    7 1
    15    6    8 1
    16    6   22 1
    17    8    9 1
    18    8   10 1
    19    8   11 1
    20   10   30 1
    21   10   31 1
    22   11   12 1
    23   11   32 1
    24   11   33 1
    25   12   17 1
    26   12   13 1
    27   13   14 1
    28   13   34 1
    29   13   35 1
    30   14   15 1
    31   14   36 1
    32   14   37 1
    33   15   16 1
    34   15   38 1
    35   15   39 1
    36   16   21 ar
    37   16   17 ar
    38   17   18 ar
    39   18   19 ar
    40   18   40 1
    41   19   20 ar
    42   19   41 1
    43   20   21 ar
    44   20   42 1
    45   21   43 1
    46   22   44 1
