@<TRIPOS>MOLECULE
ZINC62365290
   23    24     0     0     0
SMALL
USER_CHARGES

@<TRIPOS>ATOM
      1 C1          0.0098    1.3018   -0.7824 C.ar      1 <0>        -0.0636
      2 C2          0.6190    0.6016   -1.8079 C.ar      1 <0>        -0.1055
      3 C3          1.8173   -0.0489   -1.5857 C.ar      1 <0>         0.0241
      4 C4          2.4115    0.0012   -0.3293 C.ar      1 <0>        -0.1164
      5 C5          1.7975    0.7054    0.6981 C.ar      1 <0>        -0.0369
      6 C6          0.5982    1.3537    0.4691 C.ar      1 <0>        -0.0426
      7 Cl1        -0.1704    2.2344    1.7526 Cl        1 <0>        -0.0494
      8 S1          3.9396   -0.8276   -0.0415 S.3       1 <0>         0.0788
      9 C7          3.4840   -2.5235    0.1032 C.ar      1 <0>         0.0871
     10 C8          4.4648   -3.5162    0.2333 C.ar      1 <0>         0.1619
     11 C9          4.0512   -4.8366    0.3438 C.ar      1 <0>         0.1524
     12 N1          2.7527   -5.1098    0.3224 N.ar      1 <0>        -0.4735
     13 C10         1.8585   -4.1506    0.1986 C.ar      1 <0>         0.2700
     14 N2          2.2042   -2.8825    0.0963 N.ar      1 <0>        -0.4719
     15 Cl2         5.2164   -6.1131    0.5070 Cl        1 <0>        -0.0086
     16 N3          5.8259   -3.1848    0.2509 N.pl3     1 <0>        -0.8459
     17 Cl3         2.5804   -0.9284   -2.8733 Cl        1 <0>        -0.0380
     18 H1         -0.9249    1.8129   -0.9599 H         1 <0>         0.1503
     19 H2          0.1571    0.5631   -2.7834 H         1 <0>         0.1510
     20 H3          2.2561    0.7460    1.6751 H         1 <0>         0.1517
     21 H4          0.8103   -4.4104    0.1848 H         1 <0>         0.2058
     22 H5          6.1004   -2.2578    0.1725 H         1 <0>         0.4086
     23 H6          6.4938   -3.8824    0.3416 H         1 <0>         0.4106
@<TRIPOS>BOND
     1    1    6 ar
     2    1    2 ar
     3    1   18 1
     4    2    3 ar
     5    2   19 1
     6    3    4 ar
     7    3   17 1
     8    4    5 ar
     9    4    8 1
    10    5    6 ar
    11    5   20 1
    12    6    7 1
    13    8    9 1
    14    9   14 ar
    15    9   10 ar
    16   10   11 ar
    17   10   16 1
    18   11   12 ar
    19   11   15 1
    20   12   13 ar
    21   13   14 ar
    22   13   21 1
    23   16   22 1
    24   16   23 1
