@<TRIPOS>MOLECULE
ZINC39997737
   48    51     0     0     0
SMALL
USER_CHARGES

@<TRIPOS>ATOM
      1 C1          3.1149   -0.0952   -1.6000 C.3       1 <0>        -0.1787
      2 C2          1.7776    0.5492   -1.2297 C.3       1 <0>         0.1398
      3 H1          1.5353    1.3214   -1.9598 H         1 <0>         0.1288
      4 C3          0.6983   -0.5021   -1.2397 C.2       1 <0>        -0.1532
      5 C4          0.4405   -1.2147   -0.1042 C.2       1 <0>        -0.0632
      6 C5          1.2282   -0.9012    1.0947 C.ar      1 <0>        -0.1302
      7 C6          1.2773   -1.7738    2.1831 C.ar      1 <0>        -0.0678
      8 C7          2.0308   -1.4388    3.2887 C.ar      1 <0>        -0.1518
      9 C8          2.7348   -0.2454    3.3209 C.ar      1 <0>        -0.0832
     10 C9          2.6938    0.6271    2.2486 C.ar      1 <0>        -0.1484
     11 C10         1.9439    0.3099    1.1307 C.ar      1 <0>         0.1390
     12 O1          1.8812    1.1404    0.0660 O.3       1 <0>        -0.3038
     13 C11        -0.0372   -0.7466   -2.4080 C.2       1 <0>         0.0020
     14 C12        -1.4214   -0.6613   -2.3866 C.2       1 <0>        -0.0169
     15 C13        -2.0925   -0.2038   -1.2073 C.1       1 <0>         0.2697
     16 N1         -2.6248    0.1591   -0.2717 N.1       1 <0>        -0.4241
     17 C14        -2.1978   -1.0398   -3.5721 C.2       1 <0>         0.4656
     18 O2         -1.5635   -1.4722   -4.6868 O.3       1 <0>        -0.6245
     19 N2         -3.5109   -0.9589   -3.5518 N.2       1 <0>        -0.6013
     20 C15        -4.2296   -1.3092   -4.6492 C.2       1 <0>         0.3658
     21 N3         -3.8191   -1.7597   -5.8323 N.2       1 <0>        -0.3421
     22 N4         -4.6323   -2.0412   -6.7544 N.2       1 <0>        -0.2414
     23 C16        -5.9432   -1.9052   -6.6000 C.2       1 <0>        -0.0712
     24 S1         -6.0003   -1.3043   -4.9144 S.3       1 <0>        -0.0608
     25 S2         -7.2553   -2.2304   -7.7302 S.3       1 <0>         0.0073
     26 C17        -6.4117   -2.8195   -9.2242 C.3       1 <0>        -0.0680
     27 C18        -7.4332   -3.1379  -10.2854 C.ar      1 <0>        -0.0792
     28 C19        -7.9750   -4.4073  -10.3638 C.ar      1 <0>        -0.0710
     29 C20        -8.9122   -4.7002  -11.3363 C.ar      1 <0>        -0.1535
     30 C21        -9.3084   -3.7218  -12.2323 C.ar      1 <0>         0.0986
     31 C22        -8.7650   -2.4508  -12.1528 C.ar      1 <0>        -0.1535
     32 C23        -7.8318   -2.1587  -11.1762 C.ar      1 <0>        -0.0709
     33 F1        -10.2241   -4.0072  -13.1837 F         1 <0>        -0.1414
     34 H2          3.3599   -0.8681   -0.8715 H         1 <0>         0.0616
     35 H3          3.0410   -0.5412   -2.5919 H         1 <0>         0.0809
     36 H4          3.8966    0.6645   -1.6006 H         1 <0>         0.0704
     37 H5         -0.3179   -1.9834   -0.0882 H         1 <0>         0.1368
     38 H6          0.7291   -2.7041    2.1599 H         1 <0>         0.1293
     39 H7          2.0722   -2.1098    4.1339 H         1 <0>         0.1256
     40 H8          3.3212    0.0060    4.1923 H         1 <0>         0.1282
     41 H9          3.2463    1.5543    2.2841 H         1 <0>         0.1321
     42 H10         0.4741   -1.0014   -3.3245 H         1 <0>         0.1627
     43 H11        -5.7371   -2.0453   -9.5898 H         1 <0>         0.1030
     44 H12        -5.8404   -3.7175   -8.9887 H         1 <0>         0.1029
     45 H13        -7.6656   -5.1704   -9.6650 H         1 <0>         0.1381
     46 H14        -9.3351   -5.6921  -11.3976 H         1 <0>         0.1368
     47 H15        -9.0730   -1.6869  -12.8514 H         1 <0>         0.1369
     48 H16        -7.4111   -1.1661  -11.1112 H         1 <0>         0.1381
@<TRIPOS>BOND
     1    1    2 1
     2    1   34 1
     3    1   35 1
     4    1   36 1
     5    2    3 1
     6    2   12 1
     7    2    4 1
     8    4    5 2
     9    4   13 1
    10    5    6 1
    11    5   37 1
    12    6   11 ar
    13    6    7 ar
    14    7    8 ar
    15    7   38 1
    16    8    9 ar
    17    8   39 1
    18    9   10 ar
    19    9   40 1
    20   10   11 ar
    21   10   41 1
    22   11   12 1
    23   13   14 2
    24   13   42 1
    25   14   15 1
    26   14   17 1
    27   15   16 3
    28   17   18 1
    29   17   19 2
    30   19   20 1
    31   20   24 1
    32   20   21 2
    33   21   22 1
    34   22   23 2
    35   23   24 1
    36   23   25 1
    37   25   26 1
    38   26   27 1
    39   26   43 1
    40   26   44 1
    41   27   32 ar
    42   27   28 ar
    43   28   29 ar
    44   28   45 1
    45   29   30 ar
    46   29   46 1
    47   30   31 ar
    48   30   33 1
    49   31   32 ar
    50   31   47 1
    51   32   48 1
