@<TRIPOS>MOLECULE
ZINC45089323
   31    31     0     0     0
SMALL
USER_CHARGES

@<TRIPOS>ATOM
      1 C1          0.0625    1.6364    0.0276 C.3       1 <0>        -0.1334
      2 C2          0.3053    0.1503    0.2990 C.3       1 <0>        -0.0864
      3 C3          1.2795   -0.0019    1.4689 C.3       1 <0>        -0.1453
      4 C4         -1.0210   -0.5277    0.6483 C.3       1 <0>        -0.1402
      5 C5          0.9003   -0.5054   -0.9487 C.3       1 <0>         0.1251
      6 N1          2.1703    0.1438   -1.2831 N.am      1 <0>        -0.6018
      7 C6          3.4233   -0.3635   -0.7185 C.3       1 <0>         0.0704
      8 C7          2.1859    1.2078   -2.1103 C.2       1 <0>         0.6005
      9 O1          1.1392    1.6870   -2.5053 O.2       1 <0>        -0.5056
     10 C8          3.4634    1.7877   -2.5342 C.2       1 <0>        -0.0548
     11 C9          3.6227    2.9319   -3.2632 C.2       1 <0>        -0.1164
     12 C10         5.0031    3.1102   -3.4383 C.2       1 <0>        -0.1627
     13 C11         5.6199    2.0791   -2.8159 C.2       1 <0>        -0.0102
     14 O2          4.6884    1.2880   -2.2676 O.3       1 <0>        -0.1429
     15 Br1         7.4889    1.8048   -2.7279 Br        1 <0>         0.0644
     16 H1          1.0074    2.1194   -0.2212 H         1 <0>         0.0494
     17 H2         -0.6315    1.7448   -0.8058 H         1 <0>         0.0635
     18 H3         -0.3614    2.1035    0.9165 H         1 <0>         0.0494
     19 H4          0.8557    0.4653    2.3579 H         1 <0>         0.0569
     20 H5          1.4525   -1.0605    1.6623 H         1 <0>         0.0552
     21 H6          2.2245    0.4812    1.2201 H         1 <0>         0.0564
     22 H7         -1.7150   -0.4193   -0.1852 H         1 <0>         0.0585
     23 H8         -0.8480   -1.5864    0.8417 H         1 <0>         0.0563
     24 H9         -1.4449   -0.0605    1.5372 H         1 <0>         0.0599
     25 H10         1.0733   -1.5641   -0.7554 H         1 <0>         0.0827
     26 H11         0.2063   -0.3970   -1.7822 H         1 <0>         0.0881
     27 H12         3.8895   -1.0489   -1.4262 H         1 <0>         0.0622
     28 H13         4.0974    0.4704   -0.5225 H         1 <0>         0.0770
     29 H14         3.2153   -0.8893    0.2134 H         1 <0>         0.0842
     30 H15         2.8378    3.5747   -3.6334 H         1 <0>         0.1706
     31 H16         5.4831    3.9181   -3.9704 H         1 <0>         0.1691
@<TRIPOS>BOND
     1    1    2 1
     2    1   16 1
     3    1   17 1
     4    1   18 1
     5    2    3 1
     6    2    4 1
     7    2    5 1
     8    3   19 1
     9    3   20 1
    10    3   21 1
    11    4   22 1
    12    4   23 1
    13    4   24 1
    14    5    6 1
    15    5   25 1
    16    5   26 1
    17    6    7 1
    18    6    8 am
    19    7   27 1
    20    7   28 1
    21    7   29 1
    22    8    9 2
    23    8   10 1
    24   10   14 1
    25   10   11 2
    26   11   12 1
    27   11   30 1
    28   12   13 2
    29   12   31 1
    30   13   14 1
    31   13   15 1
