@<TRIPOS>MOLECULE
ZINC39237929
   44    47     0     0     0
SMALL
USER_CHARGES

@<TRIPOS>ATOM
      1 C1         -0.4146   -1.2060   -0.8481 C.3       1 <0>        -0.1690
      2 C2          0.0021   -0.0041    0.0020 C.3       1 <0>         0.1520
      3 H1         -0.8861    0.5437    0.3168 H         1 <0>         0.1399
      4 C3          0.8897    0.9027   -0.8109 C.ar      1 <0>        -0.0927
      5 C4          0.8686    0.8344   -2.1914 C.ar      1 <0>        -0.0970
      6 C5          1.6828    1.6662   -2.9371 C.ar      1 <0>        -0.1127
      7 C6          2.5178    2.5666   -2.3023 C.ar      1 <0>        -0.1112
      8 C7          2.5383    2.6355   -0.9219 C.ar      1 <0>        -0.1110
      9 C8          1.7209    1.8067   -0.1763 C.ar      1 <0>        -0.1135
     10 N1          0.7319   -0.4710    1.1833 N.am      1 <0>        -0.5156
     11 C9          1.8771   -1.1128    1.0226 C.2       1 <0>         0.5423
     12 O1          2.3423   -1.3267   -0.0803 O.2       1 <0>        -0.4335
     13 C10         2.5641   -1.5575    2.2610 C.2       1 <0>        -0.2287
     14 C11         3.7187   -2.2183    2.4060 C.2       1 <0>         0.0647
     15 C12         4.5168   -2.6163    1.1912 C.3       1 <0>        -0.1321
     16 H2          4.0089   -2.3020    0.2795 H         1 <0>         0.1730
     17 C13         4.7603   -4.1122    1.1786 C.2       1 <0>         0.0941
     18 N2          6.0435   -4.2674    1.2278 N.2       1 <0>        -0.2935
     19 N3          6.7250   -3.0557    1.2733 N.2       1 <0>        -0.3009
     20 C14         5.9135   -2.0300    1.2540 C.2       1 <0>         0.1632
     21 C15         6.2772   -0.6044    1.2867 C.ar      1 <0>        -0.0516
     22 C16         5.2802    0.3760    1.2658 C.ar      1 <0>        -0.0809
     23 C17         5.6291    1.7097    1.2966 C.ar      1 <0>        -0.1208
     24 C18         6.9620    2.0790    1.3478 C.ar      1 <0>        -0.0894
     25 C19         7.9545    1.1147    1.3684 C.ar      1 <0>        -0.1223
     26 C20         7.6215   -0.2232    1.3447 C.ar      1 <0>        -0.0666
     27 S1          1.4244   -0.9672    3.5052 S.3       1 <0>         0.0816
     28 C21         0.2229   -0.2314    2.4085 C.2       1 <0>         0.2731
     29 S2         -1.2283    0.5807    2.8148 S.2       1 <0>        -0.3068
     30 H3         -1.0566   -1.8618   -0.2601 H         1 <0>         0.0677
     31 H4         -0.9576   -0.8585   -1.7271 H         1 <0>         0.0893
     32 H5          0.4736   -1.7538   -1.1629 H         1 <0>         0.0803
     33 H6          0.2162    0.1310   -2.6874 H         1 <0>         0.1292
     34 H7          1.6668    1.6124   -4.0157 H         1 <0>         0.1265
     35 H8          3.1545    3.2159   -2.8849 H         1 <0>         0.1247
     36 H9          3.1909    3.3387   -0.4259 H         1 <0>         0.1233
     37 H10         1.7342    1.8631    0.9022 H         1 <0>         0.1091
     38 H11         4.0785   -2.4663    3.3936 H         1 <0>         0.1611
     39 H12         4.0133   -4.8911    1.1373 H         1 <0>         0.2095
     40 H13         4.2397    0.0893    1.2251 H         1 <0>         0.1163
     41 H14         4.8603    2.4680    1.2805 H         1 <0>         0.1278
     42 H15         7.2289    3.1252    1.3714 H         1 <0>         0.1303
     43 H16         8.9924    1.4108    1.4076 H         1 <0>         0.1334
     44 H17         8.3969   -0.9746    1.3657 H         1 <0>         0.1375
@<TRIPOS>BOND
     1    1    2 1
     2    1   30 1
     3    1   31 1
     4    1   32 1
     5    2    3 1
     6    2    4 1
     7    2   10 1
     8    4    9 ar
     9    4    5 ar
    10    5    6 ar
    11    5   33 1
    12    6    7 ar
    13    6   34 1
    14    7    8 ar
    15    7   35 1
    16    8    9 ar
    17    8   36 1
    18    9   37 1
    19   10   28 1
    20   10   11 am
    21   11   12 2
    22   11   13 1
    23   13   14 2
    24   13   27 1
    25   14   15 1
    26   14   38 1
    27   15   16 1
    28   15   20 1
    29   15   17 1
    30   17   18 2
    31   17   39 1
    32   18   19 1
    33   19   20 2
    34   20   21 1
    35   21   26 ar
    36   21   22 ar
    37   22   23 ar
    38   22   40 1
    39   23   24 ar
    40   23   41 1
    41   24   25 ar
    42   24   42 1
    43   25   26 ar
    44   25   43 1
    45   26   44 1
    46   27   28 1
    47   28   29 2
