@<TRIPOS>MOLECULE
ZINC40886090
   36    38     0     0     0
SMALL
USER_CHARGES

@<TRIPOS>ATOM
      1 C1         -0.0184    1.5028    0.0103 C.3       1 <0>        -0.0733
      2 C2          0.0021   -0.0041    0.0020 C.2       1 <0>        -0.2314
      3 C3          0.0085   -0.8209   -1.1348 C.2       1 <0>         0.1008
      4 N1          0.0271   -2.0694   -0.7452 N.2       1 <0>        -0.2842
      5 N2          0.0331   -2.0921    0.6555 N.pl3     1 <0>        -0.3320
      6 C4          0.0233   -0.8052    1.0916 C.2       1 <0>         0.1116
      7 C5          0.0308   -0.3525    2.5290 C.3       1 <0>        -0.1053
      8 C6          0.0512   -3.2333    1.4599 C.ar      1 <0>         0.4113
      9 C7         -0.4462   -4.4382    0.9479 C.ar      1 <0>        -0.1405
     10 C8         -0.4347   -5.5610    1.7211 C.ar      1 <0>        -0.0249
     11 C9          0.0854   -5.4661    3.0273 C.ar      1 <0>        -0.0982
     12 C10         0.1284   -6.5822    3.8776 C.ar      1 <0>        -0.0931
     13 C11         0.6385   -6.4526    5.1336 C.ar      1 <0>        -0.1109
     14 C12         1.1188   -5.2259    5.5867 C.ar      1 <0>        -0.0900
     15 C13         1.0923   -4.1235    4.7888 C.ar      1 <0>        -0.0949
     16 C14         0.5732   -4.2177    3.4857 C.ar      1 <0>         0.1583
     17 N3          0.5401   -3.1520    2.6787 N.ar      1 <0>        -0.4899
     18 C15        -0.9647   -6.8691    1.1929 C.3       1 <0>        -0.0014
     19 Cl1         0.3706   -7.7800    0.3942 Cl        1 <0>        -0.1540
     20 C16        -0.0046   -0.3432   -2.5640 C.3       1 <0>        -0.0760
     21 H1          1.0042    1.8801    0.0026 H         1 <0>         0.0649
     22 H2         -0.5455    1.8639   -0.8728 H         1 <0>         0.0671
     23 H3         -0.5286    1.8543    0.9071 H         1 <0>         0.0637
     24 H4         -0.9949   -0.2573    2.8853 H         1 <0>         0.0761
     25 H5          0.5604   -1.0852    3.1379 H         1 <0>         0.1016
     26 H6          0.5323    0.6124    2.6035 H         1 <0>         0.0839
     27 H7         -0.8385   -4.4777   -0.0576 H         1 <0>         0.1516
     28 H8         -0.2414   -7.5383    3.5377 H         1 <0>         0.1328
     29 H9          0.6707   -7.3119    5.7870 H         1 <0>         0.1327
     30 H10         1.5183   -5.1483    6.5871 H         1 <0>         0.1353
     31 H11         1.4684   -3.1799    5.1556 H         1 <0>         0.1395
     32 H12        -1.3642   -7.4589    2.0179 H         1 <0>         0.1132
     33 H13        -1.7559   -6.6747    0.4688 H         1 <0>         0.1136
     34 H14         1.0198   -0.2135   -2.9131 H         1 <0>         0.0825
     35 H15        -0.5109   -1.0792   -3.1885 H         1 <0>         0.0767
     36 H16        -0.5321    0.6088   -2.6240 H         1 <0>         0.0827
@<TRIPOS>BOND
     1    1    2 1
     2    1   21 1
     3    1   22 1
     4    1   23 1
     5    2    6 2
     6    2    3 1
     7    3    4 2
     8    3   20 1
     9    4    5 1
    10    5    6 1
    11    5    8 1
    12    6    7 1
    13    7   24 1
    14    7   25 1
    15    7   26 1
    16    8   17 ar
    17    8    9 ar
    18    9   10 ar
    19    9   27 1
    20   10   11 ar
    21   10   18 1
    22   11   16 ar
    23   11   12 ar
    24   12   13 ar
    25   12   28 1
    26   13   14 ar
    27   13   29 1
    28   14   15 ar
    29   14   30 1
    30   15   16 ar
    31   15   31 1
    32   16   17 ar
    33   18   19 1
    34   18   32 1
    35   18   33 1
    36   20   34 1
    37   20   35 1
    38   20   36 1
