@<TRIPOS>MOLECULE
ZINC21537810
   58    61     0     0     0
SMALL
USER_CHARGES
N-(2-chlorophenyl)-3-(3,4-diethoxyphenyl)-2,7-dimethyl-pyrazolo[1,5-a]pyrimidine-6-carboxamide
@<TRIPOS>ATOM
      1 C1         -6.4896   -1.6465   -0.7126 C.3       1 <0>        -0.1540
      2 C2         -5.3466   -2.6550   -0.5810 C.3       1 <0>         0.0513
      3 O1         -4.0964   -1.9813   -0.7392 O.3       1 <0>        -0.3044
      4 C3         -2.9706   -2.7396   -0.6496 C.ar      1 <0>         0.1050
      5 C4         -3.0711   -4.1023   -0.4149 C.ar      1 <0>        -0.1708
      6 C5         -1.9314   -4.8756   -0.3237 C.ar      1 <0>        -0.0903
      7 C6         -0.6756   -4.2867   -0.4677 C.ar      1 <0>         0.0048
      8 C7         -0.5742   -2.9172   -0.7094 C.ar      1 <0>        -0.1576
      9 C8         -1.7196   -2.1459   -0.7943 C.ar      1 <0>         0.1040
     10 O2         -1.6238   -0.8090   -1.0244 O.3       1 <0>        -0.3035
     11 C9         -0.3087   -0.2671   -1.1625 C.3       1 <0>         0.0517
     12 C10        -0.4017    1.2391   -1.4147 C.3       1 <0>        -0.1537
     13 C11         0.5488   -5.1161   -0.3705 C.2       1 <0>        -0.1800
     14 C12         1.4673   -5.3640   -1.3976 C.2       1 <0>         0.1439
     15 N1          2.4187   -6.1387   -0.9375 N.2       1 <0>        -0.2960
     16 N2          2.1648   -6.4308    0.4074 N.pl3     1 <0>        -0.3189
     17 C13         1.0047   -5.7918    0.7662 C.2       1 <0>         0.2752
     18 N3          0.5127   -5.9005    2.0062 N.2       1 <0>        -0.4552
     19 C14         1.1269   -6.6103    2.9201 C.2       1 <0>         0.2094
     20 C15         2.3301   -7.2845    2.6029 C.2       1 <0>        -0.2748
     21 C16         2.8382   -7.1798    1.3230 C.2       1 <0>         0.2974
     22 C17         4.1171   -7.8825    0.9465 C.3       1 <0>        -0.1848
     23 C18         3.0311   -8.0867    3.6241 C.2       1 <0>         0.5945
     24 O3          4.1260   -8.5569    3.3818 O.2       1 <0>        -0.5039
     25 N4          2.4578   -8.2983    4.8254 N.am      1 <0>        -0.6693
     26 C19         3.1668   -8.9635    5.8315 C.ar      1 <0>         0.1645
     27 C20         4.5516   -9.0465    5.7685 C.ar      1 <0>        -0.1301
     28 C21         5.2491   -9.6988    6.7663 C.ar      1 <0>        -0.0902
     29 C22         4.5696  -10.2792    7.8218 C.ar      1 <0>        -0.1263
     30 C23         3.1904  -10.2038    7.8854 C.ar      1 <0>        -0.0866
     31 C24         2.4865   -9.5475    6.8932 C.ar      1 <0>        -0.0713
     32 Cl1         0.7548   -9.4536    6.9731 Cl        1 <0>        -0.0642
     33 C25         1.3768   -4.8270   -2.8027 C.3       1 <0>        -0.0826
     34 H1         -7.4520   -2.1651   -0.5908 H         1 <0>         0.0789
     35 H2         -6.4502   -1.1752   -1.7057 H         1 <0>         0.0671
     36 H3         -6.3884   -0.8742    0.0641 H         1 <0>         0.0671
     37 H4         -5.3860   -3.1263    0.4121 H         1 <0>         0.0620
     38 H5         -5.4478   -3.4273   -1.3577 H         1 <0>         0.0619
     39 H6         -4.0430   -4.5596   -0.3029 H         1 <0>         0.1358
     40 H7         -2.0123   -5.9369   -0.1412 H         1 <0>         0.1231
     41 H8          0.3967   -2.4588   -0.8259 H         1 <0>         0.1327
     42 H9          0.2619   -0.4499   -0.2400 H         1 <0>         0.0603
     43 H10         0.1998   -0.7501   -2.0099 H         1 <0>         0.0614
     44 H11         0.6106    1.6562   -1.5210 H         1 <0>         0.0786
     45 H12        -0.9102    1.7220   -0.5672 H         1 <0>         0.0672
     46 H13        -0.9723    1.4218   -2.3372 H         1 <0>         0.0677
     47 H14         0.7150   -6.6807    3.9160 H         1 <0>         0.1782
     48 H15         4.5045   -8.4307    1.8179 H         1 <0>         0.1649
     49 H16         4.8606   -7.1406    0.6198 H         1 <0>         0.0955
     50 H17         3.9196   -8.5891    0.1269 H         1 <0>         0.0926
     51 H18         1.4324   -7.9480    5.0148 H         1 <0>         0.4367
     52 H19         5.0829   -8.5978    4.9422 H         1 <0>         0.1643
     53 H20         6.3264   -9.7596    6.7198 H         1 <0>         0.1342
     54 H21         5.1174  -10.7928    8.5979 H         1 <0>         0.1342
     55 H22         2.6628  -10.6584    8.7108 H         1 <0>         0.1384
     56 H23         2.2357   -5.1863   -3.3885 H         1 <0>         0.0833
     57 H24         1.3852   -3.7274   -2.7762 H         1 <0>         0.0888
     58 H25         0.4434   -5.1754   -3.2690 H         1 <0>         0.0920
@<TRIPOS>BOND
     1    1    2 1
     2    1   34 1
     3    1   35 1
     4    1   36 1
     5    2    3 1
     6    2   37 1
     7    2   38 1
     8    3    4 1
     9    4    9 ar
    10    4    5 ar
    11    5    6 ar
    12    5   39 1
    13    6    7 ar
    14    6   40 1
    15    7    8 ar
    16    7   13 1
    17    8    9 ar
    18    8   41 1
    19    9   10 1
    20   10   11 1
    21   11   12 1
    22   11   42 1
    23   11   43 1
    24   12   44 1
    25   12   45 1
    26   12   46 1
    27   13   17 2
    28   13   14 1
    29   14   15 2
    30   14   33 1
    31   15   16 1
    32   16   21 1
    33   16   17 1
    34   17   18 1
    35   18   19 2
    36   19   20 1
    37   19   47 1
    38   20   21 2
    39   20   23 1
    40   21   22 1
    41   22   48 1
    42   22   49 1
    43   22   50 1
    44   23   24 2
    45   23   25 am
    46   25   26 1
    47   25   51 1
    48   26   31 ar
    49   26   27 ar
    50   27   28 ar
    51   27   52 1
    52   28   29 ar
    53   28   53 1
    54   29   30 ar
    55   29   54 1
    56   30   31 ar
    57   30   55 1
    58   31   32 1
    59   33   56 1
    60   33   57 1
    61   33   58 1
