@<TRIPOS>MOLECULE
ZINC31944318
   34    36     0     0     0
SMALL
USER_CHARGES
2-(2-ethyl-4-oxo-5,6,7,8-tetrahydrobenzothiopheno[2,3-d]pyrimidin-3-yl)acetonitrile
@<TRIPOS>ATOM
      1 C1          3.8357   -3.6393   -0.0564 C.3       1 <0>        -0.1394
      2 C2          4.7018   -2.3781   -0.0573 C.3       1 <0>        -0.0881
      3 C3          3.8150   -1.1597   -0.0413 C.2       1 <0>         0.3977
      4 N1          2.5115   -1.3327   -0.0295 N.2       1 <0>        -0.4531
      5 C4          1.7505   -0.2427   -0.0158 C.2       1 <0>         0.0875
      6 C5          2.2620    1.0740   -0.0134 C.2       1 <0>        -0.2516
      7 C6          1.2798    2.1428    0.0013 C.2       1 <0>        -0.0504
      8 C7         -0.0220    1.7710    0.0118 C.2       1 <0>        -0.1721
      9 S1          0.0021   -0.0041    0.0020 S.3       1 <0>         0.1587
     10 C8         -1.2212    2.6675    0.0335 C.3       1 <0>        -0.0393
     11 C9         -0.7646    4.0845    0.4033 C.3       1 <0>        -0.1156
     12 C10         0.4583    4.4461   -0.4450 C.3       1 <0>        -0.1223
     13 C11         1.6638    3.6202    0.0042 C.3       1 <0>        -0.0612
     14 C12         3.6902    1.2184   -0.0262 C.2       1 <0>         0.5637
     15 O1          4.2318    2.3104   -0.0247 O.2       1 <0>        -0.5034
     16 N2          4.3972    0.0635   -0.0397 N.am      1 <0>        -0.5277
     17 C13         5.8601    0.1405   -0.0535 C.3       1 <0>         0.1804
     18 C14         6.3636    0.1584    1.3296 C.1       1 <0>         0.1787
     19 N3          6.7522    0.1723    2.3970 N.1       1 <0>        -0.3846
     20 H1          4.4830   -4.5286   -0.0681 H         1 <0>         0.0679
     21 H2          3.1919   -3.6426   -0.9483 H         1 <0>         0.0703
     22 H3          3.2095   -3.6534    0.8479 H         1 <0>         0.0680
     23 H4          5.3456   -2.3748    0.8346 H         1 <0>         0.1019
     24 H5          5.3280   -2.3640   -0.9615 H         1 <0>         0.1105
     25 H6         -1.6929    2.6729   -0.9602 H         1 <0>         0.0869
     26 H7         -1.9411    2.2990    0.7791 H         1 <0>         0.0847
     27 H8         -1.5797    4.7959    0.2045 H         1 <0>         0.0770
     28 H9         -0.5009    4.1179    1.4707 H         1 <0>         0.0693
     29 H10         0.2462    4.2336   -1.5032 H         1 <0>         0.0672
     30 H11         0.6852    5.5156   -0.3241 H         1 <0>         0.0728
     31 H12         1.9620    3.9195    1.0198 H         1 <0>         0.0788
     32 H13         2.5039    3.7821   -0.6872 H         1 <0>         0.0873
     33 H14         6.2683   -0.7342   -0.5810 H         1 <0>         0.1477
     34 H15         6.1741    1.0596   -0.5699 H         1 <0>         0.1516
@<TRIPOS>BOND
     1    1    2 1
     2    1   20 1
     3    1   21 1
     4    1   22 1
     5    2    3 1
     6    2   23 1
     7    2   24 1
     8    3   16 1
     9    3    4 2
    10    4    5 1
    11    5    9 1
    12    5    6 2
    13    6    7 1
    14    6   14 1
    15    7   13 1
    16    7    8 2
    17    8    9 1
    18    8   10 1
    19   10   11 1
    20   10   25 1
    21   10   26 1
    22   11   12 1
    23   11   27 1
    24   11   28 1
    25   12   13 1
    26   12   29 1
    27   12   30 1
    28   13   31 1
    29   13   32 1
    30   14   15 2
    31   14   16 am
    32   16   17 1
    33   17   18 1
    34   17   33 1
    35   17   34 1
    36   18   19 3
