@<TRIPOS>MOLECULE
ZINC04266969
   41    43     0     0     0
SMALL
USER_CHARGES

@<TRIPOS>ATOM
      1 C1         -0.0187    1.5258    0.0104 C.3       1 <0>        -0.1283
      2 C2          0.0021   -0.0041    0.0020 C.3       1 <0>        -0.0889
      3 C3         -1.4105   -0.6266    0.0828 C.3       1 <0>        -0.1093
      4 C4         -1.2610   -1.9479    0.8572 C.3       1 <0>        -0.1122
      5 C5          0.2366   -2.0776    1.2171 C.3       1 <0>        -0.1256
      6 H1          0.4034   -2.5923    2.1634 H         1 <0>         0.1205
      7 C6          0.7368   -0.6075    1.2299 C.3       1 <0>        -0.0429
      8 C7          2.2541   -0.5452    1.0433 C.3       1 <0>        -0.1581
      9 C8          0.3176    0.1009    2.5196 C.3       1 <0>        -0.1370
     10 C9          0.9195   -2.7658    0.0402 C.2       1 <0>         0.3959
     11 O1          1.5686   -3.7825    0.1737 O.2       1 <0>        -0.4575
     12 C10         0.7383   -2.1123   -1.2770 C.2       1 <0>        -0.1449
     13 N1          0.6334   -2.8035   -2.4009 N.2       1 <0>        -0.0987
     14 N2          0.6881   -4.0920   -2.3732 N.pl3     1 <0>        -0.4822
     15 C11         0.5776   -4.8203   -3.5576 C.ar      1 <0>         0.1570
     16 C12         0.4143   -4.1592   -4.7695 C.ar      1 <0>        -0.1332
     17 C13         0.3052   -4.8837   -5.9398 C.ar      1 <0>        -0.0900
     18 C14         0.3579   -6.2654   -5.9074 C.ar      1 <0>        -0.1363
     19 C15         0.5203   -6.9267   -4.7035 C.ar      1 <0>        -0.0873
     20 C16         0.6363   -6.2089   -3.5297 C.ar      1 <0>        -0.1503
     21 C17         0.6934   -0.5802   -1.2289 C.2       1 <0>         0.4481
     22 O2          1.1492    0.1259   -2.1044 O.2       1 <0>        -0.4234
     23 H2          1.0039    1.9031    0.0027 H         1 <0>         0.0670
     24 H3         -0.5459    1.8868   -0.8726 H         1 <0>         0.0677
     25 H4         -0.5289    1.8773    0.9072 H         1 <0>         0.0752
     26 H5         -2.0848    0.0444    0.6150 H         1 <0>         0.0888
     27 H6         -1.7909   -0.8218   -0.9198 H         1 <0>         0.0742
     28 H7         -1.8627   -1.9190    1.7656 H         1 <0>         0.0879
     29 H8         -1.5689   -2.7852    0.2308 H         1 <0>         0.0674
     30 H9          2.5634    0.4934    0.9256 H         1 <0>         0.0733
     31 H10         2.7455   -0.9739    1.9167 H         1 <0>         0.0720
     32 H11         2.5344   -1.1107    0.1546 H         1 <0>         0.0518
     33 H12        -0.7569   -0.0127    2.6637 H         1 <0>         0.0660
     34 H13         0.8461   -0.3402    3.3647 H         1 <0>         0.0643
     35 H14         0.5648    1.1601    2.4492 H         1 <0>         0.0695
     36 H15         0.8060   -4.5544   -1.5287 H         1 <0>         0.4010
     37 H16         0.3723   -3.0803   -4.7955 H         1 <0>         0.1380
     38 H17         0.1783   -4.3707   -6.8817 H         1 <0>         0.1316
     39 H18         0.2716   -6.8293   -6.8244 H         1 <0>         0.1283
     40 H19         0.5606   -8.0057   -4.6821 H         1 <0>         0.1323
     41 H20         0.7676   -6.7258   -2.5906 H         1 <0>         0.1284
@<TRIPOS>BOND
     1    1    2 1
     2    1   23 1
     3    1   24 1
     4    1   25 1
     5    2    7 1
     6    2   21 1
     7    2    3 1
     8    3    4 1
     9    3   26 1
    10    3   27 1
    11    4    5 1
    12    4   28 1
    13    4   29 1
    14    5    6 1
    15    5    7 1
    16    5   10 1
    17    7    8 1
    18    7    9 1
    19    8   30 1
    20    8   31 1
    21    8   32 1
    22    9   33 1
    23    9   34 1
    24    9   35 1
    25   10   11 2
    26   10   12 1
    27   12   13 2
    28   12   21 1
    29   13   14 1
    30   14   15 1
    31   14   36 1
    32   15   20 ar
    33   15   16 ar
    34   16   17 ar
    35   16   37 1
    36   17   18 ar
    37   17   38 1
    38   18   19 ar
    39   18   39 1
    40   19   20 ar
    41   19   40 1
    42   20   41 1
    43   21   22 2
