@<TRIPOS>MOLECULE
ZINC15830916
   34    37     0     0     0
SMALL
USER_CHARGES

@<TRIPOS>ATOM
      1 C1         -0.0184    1.5028    0.0103 C.3       1 <0>        -0.1072
      2 C2          0.0021   -0.0041    0.0020 C.ar      1 <0>        -0.0967
      3 C3          0.0057   -0.6861   -1.1981 C.ar      1 <0>        -0.1029
      4 C4          0.0248   -2.0685   -1.2074 C.ar      1 <0>        -0.1361
      5 C5          0.0408   -2.7676   -0.0155 C.ar      1 <0>        -0.0927
      6 C6          0.0367   -2.0892    1.1903 C.ar      1 <0>        -0.1262
      7 C7          0.0230   -0.7040    1.2030 C.ar      1 <0>         0.1150
      8 O1          0.0222   -0.0131    2.3687 O.3       1 <0>        -0.2337
      9 C8          0.4226   -0.6089    3.5113 C.ar      1 <0>         0.3649
     10 N1          0.7837    0.1341    4.5552 N.ar      1 <0>        -0.5638
     11 C9          1.1796   -0.4315    5.6867 C.ar      1 <0>         0.3817
     12 N2          1.2333   -1.7481    5.8275 N.ar      1 <0>        -0.5344
     13 C10         0.8870   -2.5526    4.8253 C.ar      1 <0>         0.3659
     14 S1          0.9602   -4.3027    5.0167 S.3       1 <0>        -0.8123
     15 C11         0.4650   -1.9892    3.6221 C.ar      1 <0>        -0.2676
     16 C12         0.0524   -2.8724    2.4756 C.3       1 <0>        -0.0046
     17 C13         1.5735    0.4327    6.8260 C.ar      1 <0>        -0.0742
     18 C14         2.0012   -0.1320    8.0313 C.ar      1 <0>        -0.0292
     19 C15         2.3583    0.7175    9.0639 C.ar      1 <0>        -0.1837
     20 C16         2.2812    2.0852    8.8722 C.ar      1 <0>         0.1003
     21 N3          1.8733    2.5889    7.7235 N.ar      1 <0>        -0.4940
     22 C17         1.5288    1.8204    6.7105 C.ar      1 <0>         0.1403
     23 H1          1.0042    1.8801    0.0026 H         1 <0>         0.0691
     24 H2         -0.5455    1.8639   -0.8728 H         1 <0>         0.0653
     25 H3         -0.5286    1.8543    0.9071 H         1 <0>         0.0725
     26 H4         -0.0068   -0.1399   -2.1297 H         1 <0>         0.1291
     27 H5          0.0277   -2.6021   -2.1464 H         1 <0>         0.1251
     28 H6          0.0562   -3.8474   -0.0253 H         1 <0>         0.1298
     29 H7         -0.9408   -3.2815    2.6604 H         1 <0>         0.0867
     30 H8          0.7659   -3.6919    2.3894 H         1 <0>         0.1035
     31 H9          2.0514   -1.2039    8.1536 H         1 <0>         0.1504
     32 H10         2.6931    0.3169   10.0093 H         1 <0>         0.1368
     33 H11         2.5591    2.7511    9.6759 H         1 <0>         0.1540
     34 H12         1.2042    2.2701    5.7838 H         1 <0>         0.1687
@<TRIPOS>BOND
     1    1    2 1
     2    1   23 1
     3    1   24 1
     4    1   25 1
     5    2    7 ar
     6    2    3 ar
     7    3    4 ar
     8    3   26 1
     9    4    5 ar
    10    4   27 1
    11    5    6 ar
    12    5   28 1
    13    6   16 1
    14    6    7 ar
    15    7    8 1
    16    8    9 1
    17    9   10 ar
    18    9   15 ar
    19   10   11 ar
    20   11   12 ar
    21   11   17 1
    22   12   13 ar
    23   13   15 ar
    24   13   14 1
    25   15   16 1
    26   16   29 1
    27   16   30 1
    28   17   22 ar
    29   17   18 ar
    30   18   19 ar
    31   18   31 1
    32   19   20 ar
    33   19   32 1
    34   20   21 ar
    35   20   33 1
    36   21   22 ar
    37   22   34 1
