@<TRIPOS>MOLECULE
ZINC48444260
   30    32     0     0     0
SMALL
USER_CHARGES

@<TRIPOS>ATOM
      1 C1         -0.0167    1.3789    0.0096 C.ar      1 <0>        -0.0965
      2 C2          1.1709    2.0865    0.0021 C.ar      1 <0>        -0.0073
      3 C3          2.3773    1.4125   -0.0131 C.ar      1 <0>        -0.6073
      4 C4          2.3971    0.0292   -0.0207 C.ar      1 <0>         0.0067
      5 C5          1.2094   -0.6791   -0.0132 C.ar      1 <0>        -0.0836
      6 C6          0.0021   -0.0041    0.0020 C.ar      1 <0>        -0.0356
      7 Br1        -1.6224   -0.9719    0.0130 Br        1 <0>        -0.0158
      8 Br2         4.0479   -0.8929   -0.0421 Br        1 <0>         0.0031
      9 S1          3.8905    2.3151   -0.0233 S.o2      1 <0>         2.6223
     10 O1          4.6882    1.7590   -1.0594 O.2       1 <0>        -0.9511
     11 O2          3.5423    3.6923    0.0142 O.2       1 <0>        -0.9701
     12 N1          4.6675    1.9845    1.4013 N.2       1 <0>        -0.9443
     13 C7          5.8302    2.5324    1.6559 C.2       1 <0>         0.4833
     14 N2          6.5683    3.4003    0.8938 N.pl3     1 <0>        -0.6515
     15 C8          7.7908    3.8624    1.3641 C.2       1 <0>         0.0582
     16 C9          8.1927    3.4263    2.5577 C.2       1 <0>        -0.2148
     17 S2          6.8758    2.3553    3.0922 S.3       1 <0>         0.1703
     18 C10         9.5280    3.9866    2.9584 C.3       1 <0>        -0.0297
     19 C11        10.1305    4.5264    1.6422 C.3       1 <0>        -0.1127
     20 C12         8.8605    4.8142    0.8176 C.3       1 <0>        -0.0547
     21 H1         -0.9592    1.9060    0.0260 H         1 <0>         0.1547
     22 H2          1.1559    3.1664    0.0077 H         1 <0>         0.1627
     23 H3          1.2244   -1.7590   -0.0195 H         1 <0>         0.1560
     24 H4          9.4010    4.7948    3.6785 H         1 <0>         0.0936
     25 H5         10.1610    3.2020    3.3731 H         1 <0>         0.0892
     26 H6         10.6978    5.4404    1.8179 H         1 <0>         0.0960
     27 H7         10.7490    3.7715    1.1568 H         1 <0>         0.0853
     28 H8          9.0422    4.6109   -0.2377 H         1 <0>         0.0873
     29 H9          8.5489    5.8497    0.9544 H         1 <0>         0.0978
     30 H10         6.2382    3.6905    0.0291 H         1 <0>         0.4086
@<TRIPOS>BOND
     1    1    6 ar
     2    1    2 ar
     3    1   21 1
     4    2    3 ar
     5    2   22 1
     6    3    4 ar
     7    3    9 1
     8    4    5 ar
     9    4    8 1
    10    5    6 ar
    11    5   23 1
    12    6    7 1
    13    9   10 2
    14    9   11 2
    15    9   12 1
    16   12   13 2
    17   13   17 1
    18   13   14 1
    19   14   15 1
    20   14   30 1
    21   15   20 1
    22   15   16 2
    23   16   17 1
    24   16   18 1
    25   18   19 1
    26   18   24 1
    27   18   25 1
    28   19   20 1
    29   19   26 1
    30   19   27 1
    31   20   28 1
    32   20   29 1
