@<TRIPOS>MOLECULE
ZINC48412322
   38    41     0     0     0
SMALL
USER_CHARGES

@<TRIPOS>ATOM
      1 C1         -0.0187    1.5258    0.0104 C.3       1 <0>        -0.1242
      2 C2          1.4167    2.0553   -0.0004 C.3       1 <0>        -0.1211
      3 C3          2.1328    1.5619   -1.2592 C.3       1 <0>        -0.1023
      4 C4          2.1536    0.0321   -1.2676 C.3       1 <0>        -0.0384
      5 C5          0.7182   -0.4975   -1.2568 C.3       1 <0>        -0.1125
      6 C6          0.0021   -0.0041    0.0020 C.3       1 <0>        -0.1171
      7 C7          2.8590   -0.4539   -2.5075 C.2       1 <0>         0.4150
      8 N1          3.4400   -1.6820   -2.5069 N.am      1 <0>        -0.6341
      9 H1          3.3926   -2.2298   -1.7078 H         1 <0>         0.4211
     10 C8          4.0796   -2.1542   -3.5932 C.2       1 <0>         0.5560
     11 O1          4.5954   -3.2589   -3.5775 O.2       1 <0>        -0.5215
     12 C9          4.1437   -1.3368   -4.7687 C.2       1 <0>        -0.2429
     13 C10         4.7865   -1.6465   -6.0506 C.2       1 <0>        -0.0439
     14 C11         4.6921   -0.6906   -7.0101 C.2       1 <0>        -0.2082
     15 S1          3.7849    0.6372   -6.2728 S.3       1 <0>         0.2173
     16 C12         3.5152   -0.0864   -4.6742 C.2       1 <0>         0.1023
     17 N2          2.8965    0.3109   -3.5661 N.2       1 <0>        -0.4797
     18 S2          5.3379   -0.7796   -8.6422 S.3       1 <0>        -0.0294
     19 C13         6.3872   -2.2691   -8.5378 C.3       1 <0>        -0.1062
     20 C14         5.5946   -3.3231   -7.7518 C.3       1 <0>        -0.1249
     21 C15         5.5227   -2.9583   -6.2779 C.3       1 <0>        -0.0712
     22 H2         -0.5289    1.8773    0.9072 H         1 <0>         0.0653
     23 H3         -0.5459    1.8868   -0.8726 H         1 <0>         0.0658
     24 H4          1.4019    3.1452    0.0056 H         1 <0>         0.0697
     25 H5          1.9439    1.6943    0.8826 H         1 <0>         0.0634
     26 H6          1.6057    1.9230   -2.1423 H         1 <0>         0.0848
     27 H7          3.1554    1.9392   -1.2670 H         1 <0>         0.0687
     28 H8          2.6808   -0.3290   -0.3846 H         1 <0>         0.1032
     29 H9          0.1910   -0.1364   -2.1398 H         1 <0>         0.0765
     30 H10         0.7330   -1.5874   -1.2628 H         1 <0>         0.0667
     31 H11         0.5293   -0.3651    0.8851 H         1 <0>         0.0662
     32 H12        -1.0205   -0.3814    0.0098 H         1 <0>         0.0700
     33 H13         6.6074   -2.6397   -9.5390 H         1 <0>         0.1200
     34 H14         7.3144   -2.0348   -8.0148 H         1 <0>         0.0968
     35 H15         4.5839   -3.3859   -8.1552 H         1 <0>         0.0793
     36 H16         6.0829   -4.2917   -7.8580 H         1 <0>         0.0889
     37 H17         6.5356   -2.8690   -5.8851 H         1 <0>         0.0813
     38 H18         5.0048   -3.7530   -5.7409 H         1 <0>         0.0991
@<TRIPOS>BOND
     1    1    6 1
     2    1    2 1
     3    1   22 1
     4    1   23 1
     5    2    3 1
     6    2   24 1
     7    2   25 1
     8    3    4 1
     9    3   26 1
    10    3   27 1
    11    4    5 1
    12    4    7 1
    13    4   28 1
    14    5    6 1
    15    5   29 1
    16    5   30 1
    17    6   31 1
    18    6   32 1
    19    7   17 2
    20    7    8 1
    21    8    9 1
    22    8   10 am
    23   10   11 2
    24   10   12 1
    25   12   16 2
    26   12   13 1
    27   13   21 1
    28   13   14 2
    29   14   15 1
    30   14   18 1
    31   15   16 1
    32   16   17 1
    33   18   19 1
    34   19   20 1
    35   19   33 1
    36   19   34 1
    37   20   21 1
    38   20   35 1
    39   20   36 1
    40   21   37 1
    41   21   38 1
