@<TRIPOS>MOLECULE
ZINC40287806
   36    39     0     0     0
SMALL
USER_CHARGES

@<TRIPOS>ATOM
      1 C1         -0.0167    1.3779    0.0096 C.ar      1 <0>        -0.0674
      2 C2          1.1692    2.0868    0.0021 C.ar      1 <0>        -0.1188
      3 C3          2.3814    1.4108   -0.0131 C.ar      1 <0>         0.1383
      4 C4          2.3996    0.0229   -0.0206 C.ar      1 <0>        -0.1578
      5 C5          1.2097   -0.6825   -0.0131 C.ar      1 <0>         0.1240
      6 C6          0.0021   -0.0041    0.0020 C.ar      1 <0>        -0.1421
      7 F1          1.2255   -2.0334   -0.0209 F         1 <0>        -0.1270
      8 N1          3.5859    2.1289   -0.0212 N.pl3     1 <0>        -0.4105
      9 C7          3.9143    3.1602   -0.8559 C.2       1 <0>         0.1929
     10 N2          5.1204    3.5732   -0.5602 N.2       1 <0>        -0.4397
     11 C8          5.6008    2.8454    0.4456 C.2       1 <0>        -0.0162
     12 C9          4.6495    1.9373    0.8036 C.2       1 <0>         0.2167
     13 N3          4.8474    1.0284    1.8443 N.am      1 <0>        -0.6441
     14 C10         6.1025    0.8738    2.3203 C.2       1 <0>         0.5325
     15 O1          6.2783    0.1782    3.2984 O.2       1 <0>        -0.5075
     16 C11         7.2869    1.5355    1.6762 C.3       1 <0>        -0.1331
     17 C12         6.9351    2.9233    1.1434 C.3       1 <0>         0.0491
     18 H1          7.6977    3.2586    0.4405 H         1 <0>         0.1180
     19 C13         6.8484    3.8883    2.2976 C.ar      1 <0>        -0.1329
     20 C14         7.6607    5.0116    2.3361 C.ar      1 <0>        -0.0597
     21 C15         7.5466    5.8716    3.4174 C.ar      1 <0>        -0.1689
     22 C16         6.6335    5.5829    4.4142 C.ar      1 <0>         0.0973
     23 N4          5.8774    4.5049    4.3446 N.ar      1 <0>        -0.4811
     24 C17         5.9546    3.6681    3.3281 C.ar      1 <0>         0.1062
     25 H2         -0.9595    1.9044    0.0259 H         1 <0>         0.1495
     26 H3          1.1530    3.1667    0.0077 H         1 <0>         0.1436
     27 H4          3.3414   -0.5055   -0.0328 H         1 <0>         0.1423
     28 H5         -0.9263   -0.5559    0.0082 H         1 <0>         0.1479
     29 H6          3.2827    3.5669   -1.6318 H         1 <0>         0.2211
     30 H7          4.1067    0.5229    2.2142 H         1 <0>         0.4125
     31 H8          8.0875    1.6257    2.4104 H         1 <0>         0.1204
     32 H9          7.6330    0.9180    0.8473 H         1 <0>         0.1165
     33 H10         8.3657    5.2115    1.5427 H         1 <0>         0.1398
     34 H11         8.1636    6.7557    3.4804 H         1 <0>         0.1387
     35 H12         6.5385    6.2478    5.2599 H         1 <0>         0.1573
     36 H13         5.3150    2.7982    3.3032 H         1 <0>         0.1423
@<TRIPOS>BOND
     1    1    6 ar
     2    1    2 ar
     3    1   25 1
     4    2    3 ar
     5    2   26 1
     6    3    4 ar
     7    3    8 1
     8    4    5 ar
     9    4   27 1
    10    5    6 ar
    11    5    7 1
    12    6   28 1
    13    8   12 1
    14    8    9 1
    15    9   10 2
    16    9   29 1
    17   10   11 1
    18   11   17 1
    19   11   12 2
    20   12   13 1
    21   13   14 am
    22   13   30 1
    23   14   15 2
    24   14   16 1
    25   16   17 1
    26   16   31 1
    27   16   32 1
    28   17   18 1
    29   17   19 1
    30   19   24 ar
    31   19   20 ar
    32   20   21 ar
    33   20   33 1
    34   21   22 ar
    35   21   34 1
    36   22   23 ar
    37   22   35 1
    38   23   24 ar
    39   24   36 1
