@<TRIPOS>MOLECULE
ZINC49433783
   44    48     0     0     0
SMALL
USER_CHARGES

@<TRIPOS>ATOM
      1 C1          0.3240    1.4425    0.9326 C.ar      1 <0>        -0.1160
      2 C2          1.2048    2.1144    0.0932 C.ar      1 <0>        -0.0727
      3 C3          2.2000    1.4069   -0.5515 C.ar      1 <0>        -0.0749
      4 C4          2.3022    0.0503   -0.3520 C.ar      1 <0>        -0.1318
      5 C5          1.4195   -0.6641    0.4976 C.ar      1 <0>         0.0615
      6 C6          0.4136    0.1035    1.1384 C.ar      1 <0>        -0.0415
      7 N1          1.6422   -1.9787    0.5927 N.2       1 <0>        -0.4346
      8 C7          2.6129   -2.5853   -0.0535 C.2       1 <0>         0.1011
      9 S1          3.3778   -1.2350   -0.9412 S.3       1 <0>         0.0288
     10 C8          2.9784   -4.0177   -0.0481 C.2       1 <0>         0.6151
     11 O1          2.1138   -4.8651    0.0609 O.2       1 <0>        -0.4869
     12 N2          4.2702   -4.3841   -0.1641 N.am      1 <0>        -0.6018
     13 C9          5.3375   -3.3744   -0.1639 C.3       1 <0>         0.0975
     14 C10         6.3643   -3.7425    0.9118 C.3       1 <0>        -0.1309
     15 C11         6.8529   -5.1736    0.6764 C.3       1 <0>         0.0889
     16 C12         5.6725   -6.1416    0.7840 C.3       1 <0>        -0.1542
     17 C13         4.6383   -5.8011   -0.2869 C.3       1 <0>         0.1212
     18 O2          7.8348   -5.5090    1.6590 O.3       1 <0>        -0.2473
     19 C14         8.7913   -6.3944    1.2945 C.2       1 <0>         0.3346
     20 N3          8.9560   -6.9993    0.1429 N.2       1 <0>        -0.5621
     21 C15         9.9663   -7.8687   -0.0836 C.ar      1 <0>         0.1008
     22 C16        10.2537   -8.5827   -1.2696 C.ar      1 <0>        -0.0410
     23 C17        11.3263   -9.4332   -1.3332 C.ar      1 <0>        -0.1332
     24 C18        12.1660   -9.6245   -0.2430 C.ar      1 <0>         0.1142
     25 C19        11.9136   -8.9405    0.9340 C.ar      1 <0>        -0.0909
     26 C20        10.8406   -8.0872    1.0047 C.ar      1 <0>        -0.1450
     27 S2         10.1557   -7.0304    2.2579 S.3       1 <0>         0.0841
     28 F1         13.2170  -10.4689   -0.3304 F         1 <0>        -0.1261
     29 H1         -0.4497    2.0012    1.4381 H         1 <0>         0.1400
     30 H2          1.1115    3.1803   -0.0536 H         1 <0>         0.1446
     31 H3          2.8919    1.9147   -1.2072 H         1 <0>         0.1396
     32 H4         -0.2896   -0.3831    1.7982 H         1 <0>         0.1388
     33 H5          5.8221   -3.3547   -1.1401 H         1 <0>         0.0890
     34 H6          4.9136   -2.3945    0.0558 H         1 <0>         0.1006
     35 H7          7.2093   -3.0561    0.8581 H         1 <0>         0.0964
     36 H8          5.9009   -3.6735    1.8959 H         1 <0>         0.0867
     37 H9          7.2940   -5.2478   -0.3176 H         1 <0>         0.0989
     38 H10         6.0251   -7.1628    0.6395 H         1 <0>         0.0912
     39 H11         5.2156   -6.0500    1.7694 H         1 <0>         0.0839
     40 H12         3.7531   -6.4219   -0.1484 H         1 <0>         0.1083
     41 H13         5.0645   -5.9837   -1.2734 H         1 <0>         0.0839
     42 H14         9.6204   -8.4565   -2.1353 H         1 <0>         0.1448
     43 H15        11.5230   -9.9671   -2.2512 H         1 <0>         0.1487
     44 H16        12.5567   -9.0774    1.7908 H         1 <0>         0.1477
@<TRIPOS>BOND
     1    1    6 ar
     2    1    2 ar
     3    1   29 1
     4    2    3 ar
     5    2   30 1
     6    3    4 ar
     7    3   31 1
     8    4    9 1
     9    4    5 ar
    10    5    6 ar
    11    5    7 1
    12    6   32 1
    13    7    8 2
    14    8    9 1
    15    8   10 1
    16   10   11 2
    17   10   12 am
    18   12   17 1
    19   12   13 1
    20   13   14 1
    21   13   33 1
    22   13   34 1
    23   14   15 1
    24   14   35 1
    25   14   36 1
    26   15   16 1
    27   15   18 1
    28   15   37 1
    29   16   17 1
    30   16   38 1
    31   16   39 1
    32   17   40 1
    33   17   41 1
    34   18   19 1
    35   19   27 1
    36   19   20 2
    37   20   21 1
    38   21   26 ar
    39   21   22 ar
    40   22   23 ar
    41   22   42 1
    42   23   24 ar
    43   23   43 1
    44   24   25 ar
    45   24   28 1
    46   25   26 ar
    47   25   44 1
    48   26   27 1
