@<TRIPOS>MOLECULE
ZINC15007747
   25    26     0     0     0
SMALL
USER_CHARGES
2,3-dichloro-N-(4-methylthiazol-2-yl)benzamide
@<TRIPOS>ATOM
      1 C1         -0.0127    1.0858    0.0080 C.3       1 <0>        -0.0814
      2 C2         -0.7181    1.5718    1.2479 C.2       1 <0>         0.0798
      3 C3         -2.0559    1.7898    1.2441 C.2       1 <0>        -0.2643
      4 S1         -2.3086    2.3324    2.9278 S.3       1 <0>         0.1630
      5 C4         -0.6558    2.2260    3.4499 C.2       1 <0>         0.2805
      6 N1         -0.0472    1.8001    2.3599 N.2       1 <0>        -0.5435
      7 N2         -0.1139    2.5146    4.6958 N.am      1 <0>        -0.6052
      8 C5         -0.9110    2.9432    5.6945 C.2       1 <0>         0.5591
      9 O1         -2.1043    3.0772    5.5048 O.2       1 <0>        -0.4685
     10 C6         -0.3346    3.2501    7.0196 C.ar      1 <0>        -0.1203
     11 C7          1.0358    3.0973    7.2409 C.ar      1 <0>        -0.0676
     12 C8          1.5681    3.3858    8.4798 C.ar      1 <0>        -0.1071
     13 C9          0.7483    3.8258    9.5045 C.ar      1 <0>        -0.0639
     14 C10        -0.6107    3.9801    9.2942 C.ar      1 <0>        -0.0427
     15 C11        -1.1570    3.7000    8.0553 C.ar      1 <0>         0.0218
     16 Cl1        -2.8609    3.9000    7.7898 Cl        1 <0>        -0.0005
     17 Cl2        -1.6302    4.5327   10.5860 Cl        1 <0>        -0.0317
     18 H1          0.0021   -0.0041    0.0020 H         1 <0>         0.0748
     19 H2          1.0099    1.4631    0.0003 H         1 <0>         0.0736
     20 H3         -0.5399    1.4469   -0.8751 H         1 <0>         0.0760
     21 H4         -2.7718    1.6678    0.4447 H         1 <0>         0.1967
     22 H5          0.8382    2.4077    4.8471 H         1 <0>         0.4236
     23 H6          1.6775    2.7533    6.4432 H         1 <0>         0.1436
     24 H7          2.6278    3.2676    8.6512 H         1 <0>         0.1516
     25 H8          1.1711    4.0495   10.4728 H         1 <0>         0.1526
@<TRIPOS>BOND
     1    1    2 1
     2    1   18 1
     3    1   19 1
     4    1   20 1
     5    2    6 1
     6    2    3 2
     7    3    4 1
     8    3   21 1
     9    4    5 1
    10    5    6 2
    11    5    7 1
    12    7    8 am
    13    7   22 1
    14    8    9 2
    15    8   10 1
    16   10   15 ar
    17   10   11 ar
    18   11   12 ar
    19   11   23 1
    20   12   13 ar
    21   12   24 1
    22   13   14 ar
    23   13   25 1
    24   14   15 ar
    25   14   17 1
    26   15   16 1
