@<TRIPOS>MOLECULE
ZINC08704853
   29    31     0     0     0
SMALL
USER_CHARGES
5-bromo-2-fluoro-N-(6-thia-8-azabicyclo[3.3.0]octa-7,9-dien-7-yl)benzamide
@<TRIPOS>ATOM
      1 C1         -1.2198    1.7493    0.0174 C.ar      1 <0>        -0.0286
      2 C2         -0.0126    1.0758    0.0080 C.ar      1 <0>        -0.1530
      3 C3          1.1762    1.7820    0.0004 C.ar      1 <0>         0.1833
      4 C4          1.1539    3.1806    0.0081 C.ar      1 <0>        -0.1676
      5 C5         -0.0702    3.8524    0.0234 C.ar      1 <0>        -0.0297
      6 C6         -1.2482    3.1340    0.0308 C.ar      1 <0>        -0.1140
      7 Br1        -2.9064    4.0427    0.0515 Br        1 <0>        -0.0246
      8 C7          2.4184    3.9428    0.0006 C.2       1 <0>         0.5567
      9 O1          3.4825    3.3549   -0.0123 O.2       1 <0>        -0.4462
     10 N1          2.3930    5.2903    0.0081 N.am      1 <0>        -0.6157
     11 C8          3.5826    6.0074    0.0011 C.2       1 <0>         0.3069
     12 N2          4.8169    5.5594   -0.0068 N.2       1 <0>        -0.5077
     13 C9          5.8770    6.3805   -0.0158 C.2       1 <0>         0.0667
     14 C10         5.5990    7.7054   -0.0074 C.2       1 <0>        -0.2329
     15 S1          3.8212    7.7273    0.0081 S.3       1 <0>         0.0995
     16 C11         6.8391    8.5462   -0.0168 C.3       1 <0>        -0.0268
     17 C12         7.9600    7.5819   -0.4665 C.3       1 <0>        -0.1134
     18 C13         7.3969    6.2155   -0.0272 C.3       1 <0>        -0.0437
     19 F1          2.3556    1.1233   -0.0140 F         1 <0>        -0.1036
     20 H1         -2.1454    1.1929    0.0184 H         1 <0>         0.1533
     21 H2          0.0021   -0.0041    0.0020 H         1 <0>         0.1584
     22 H3         -0.0949    4.9321    0.0291 H         1 <0>         0.1452
     23 H4          1.5441    5.7594    0.0184 H         1 <0>         0.4256
     24 H5          6.7364    9.3670   -0.7266 H         1 <0>         0.0818
     25 H6          7.0446    8.9316    0.9818 H         1 <0>         0.0882
     26 H7          8.0953    7.6184   -1.5474 H         1 <0>         0.0803
     27 H8          8.8944    7.8026    0.0496 H         1 <0>         0.0907
     28 H9          7.6865    5.4423   -0.7388 H         1 <0>         0.0829
     29 H10         7.7570    5.9627    0.9701 H         1 <0>         0.0879
@<TRIPOS>BOND
     1    1    6 ar
     2    1    2 ar
     3    1   20 1
     4    2    3 ar
     5    2   21 1
     6    3    4 ar
     7    3   19 1
     8    4    5 ar
     9    4    8 1
    10    5    6 ar
    11    5   22 1
    12    6    7 1
    13    8    9 2
    14    8   10 am
    15   10   11 1
    16   10   23 1
    17   11   15 1
    18   11   12 2
    19   12   13 1
    20   13   18 1
    21   13   14 2
    22   14   15 1
    23   14   16 1
    24   16   17 1
    25   16   24 1
    26   16   25 1
    27   17   18 1
    28   17   26 1
    29   17   27 1
    30   18   28 1
    31   18   29 1
