@<TRIPOS>MOLECULE
ZINC40407881
   51    54     0     0     0
SMALL
USER_CHARGES

@<TRIPOS>ATOM
      1 C1         -0.0187    1.5258    0.0104 C.3       1 <0>        -0.1553
      2 C2          0.0021   -0.0041    0.0020 C.3       1 <0>        -0.1388
      3 C3          0.7182   -0.4975   -1.2568 C.3       1 <0>         0.1315
      4 H1          1.7103   -0.0491   -1.3098 H         1 <0>         0.1007
      5 C4          0.8493   -2.0210   -1.2049 C.3       1 <0>        -0.1679
      6 N1         -0.0549   -0.1139   -2.4405 N.pl3     1 <0>        -0.4663
      7 C5         -1.3548   -0.4828   -2.7238 C.ar      1 <0>         0.0703
      8 C6         -2.3022   -1.2614   -2.0731 C.ar      1 <0>        -0.1013
      9 C7         -3.5471   -1.4388   -2.6404 C.ar      1 <0>        -0.0153
     10 C8         -3.8568   -0.8442   -3.8568 C.ar      1 <0>        -0.1203
     11 C9         -2.9365   -0.0751   -4.5104 C.ar      1 <0>        -0.0440
     12 C10        -1.6693    0.1186   -3.9540 C.ar      1 <0>         0.0508
     13 N2         -0.5687    0.8089   -4.3497 N.2       1 <0>        -0.4635
     14 C11         0.3729    0.6770   -3.4618 C.2       1 <0>         0.3056
     15 C12         1.7395    1.3057   -3.5526 C.3       1 <0>         0.0376
     16 H2          2.2271    1.2575   -2.5789 H         1 <0>         0.1124
     17 C13         2.5686    0.5609   -4.5670 C.ar      1 <0>        -0.0975
     18 C14         2.1509    0.4894   -5.8828 C.ar      1 <0>        -0.0767
     19 C15         2.9115   -0.1937   -6.8132 C.ar      1 <0>        -0.1179
     20 C16         4.0900   -0.8050   -6.4280 C.ar      1 <0>        -0.1065
     21 C17         4.5082   -0.7327   -5.1124 C.ar      1 <0>        -0.1191
     22 C18         3.7498   -0.0459   -4.1828 C.ar      1 <0>        -0.1093
     23 S1          1.5750    3.0391   -4.0614 S.3       1 <0>        -0.0374
     24 C19         3.2197    3.6657   -3.9780 C.ar      1 <0>        -0.0944
     25 C20         4.2630    2.8342   -3.5887 C.ar      1 <0>        -0.1397
     26 C21         5.5506    3.3288   -3.5245 C.ar      1 <0>        -0.1002
     27 C22         5.8027    4.6498   -3.8470 C.ar      1 <0>        -0.1233
     28 C23         4.7668    5.4804   -4.2344 C.ar      1 <0>        -0.1007
     29 C24         3.4776    4.9911   -4.3069 C.ar      1 <0>        -0.0980
     30 Cl1        -4.7340   -2.4118   -1.8291 Cl        1 <0>        -0.0602
     31 H3          1.0039    1.9031    0.0027 H         1 <0>         0.0568
     32 H4         -0.5459    1.8868   -0.8726 H         1 <0>         0.0552
     33 H5         -0.5289    1.8773    0.9072 H         1 <0>         0.0642
     34 H6          0.5293   -0.3651    0.8851 H         1 <0>         0.0877
     35 H7         -1.0205   -0.3814    0.0098 H         1 <0>         0.0751
     36 H8         -0.1428   -2.4694   -1.1520 H         1 <0>         0.0682
     37 H9          1.3594   -2.3725   -2.1017 H         1 <0>         0.0668
     38 H10         1.4245   -2.3064   -0.3242 H         1 <0>         0.0823
     39 H11        -2.0657   -1.7263   -1.1274 H         1 <0>         0.1334
     40 H12        -4.8349   -0.9917   -4.2903 H         1 <0>         0.1415
     41 H13        -3.1879    0.3829   -5.4556 H         1 <0>         0.1411
     42 H14         1.2302    0.9670   -6.1837 H         1 <0>         0.1393
     43 H15         2.5848   -0.2502   -7.8411 H         1 <0>         0.1267
     44 H16         4.6838   -1.3393   -7.1548 H         1 <0>         0.1248
     45 H17         5.4287   -1.2105   -4.8113 H         1 <0>         0.1258
     46 H18         4.0784    0.0137   -3.1557 H         1 <0>         0.1213
     47 H19         4.0668    1.8026   -3.3364 H         1 <0>         0.1299
     48 H20         6.3618    2.6833   -3.2217 H         1 <0>         0.1240
     49 H21         6.8107    5.0339   -3.7959 H         1 <0>         0.1247
     50 H22         4.9673    6.5115   -4.4852 H         1 <0>         0.1284
     51 H23         2.6700    5.6389   -4.6145 H         1 <0>         0.1275
@<TRIPOS>BOND
     1    1    2 1
     2    1   31 1
     3    1   32 1
     4    1   33 1
     5    2    3 1
     6    2   34 1
     7    2   35 1
     8    3    4 1
     9    3    5 1
    10    3    6 1
    11    5   36 1
    12    5   37 1
    13    5   38 1
    14    6   14 1
    15    6    7 1
    16    7   12 ar
    17    7    8 ar
    18    8    9 ar
    19    8   39 1
    20    9   10 ar
    21    9   30 1
    22   10   11 ar
    23   10   40 1
    24   11   12 ar
    25   11   41 1
    26   12   13 1
    27   13   14 2
    28   14   15 1
    29   15   16 1
    30   15   17 1
    31   15   23 1
    32   17   22 ar
    33   17   18 ar
    34   18   19 ar
    35   18   42 1
    36   19   20 ar
    37   19   43 1
    38   20   21 ar
    39   20   44 1
    40   21   22 ar
    41   21   45 1
    42   22   46 1
    43   23   24 1
    44   24   29 ar
    45   24   25 ar
    46   25   26 ar
    47   25   47 1
    48   26   27 ar
    49   26   48 1
    50   27   28 ar
    51   27   49 1
    52   28   29 ar
    53   28   50 1
    54   29   51 1
