@<TRIPOS>MOLECULE
ZINC09270380
   62    63     0     0     0
SMALL
USER_CHARGES
4-hexoxy-N-[(3-sec-butoxyphenyl)carbamothioyl]benzamide
@<TRIPOS>ATOM
      1 C1         15.8538   -5.8362   -1.8780 C.3       1 <0>        -0.1550
      2 C2         14.3881   -5.4069   -1.7855 C.3       1 <0>        -0.1257
      3 C3         14.3131   -3.8990   -1.5377 C.3       1 <0>        -0.1203
      4 C4         12.8475   -3.4697   -1.4451 C.3       1 <0>        -0.1173
      5 C5         12.7725   -1.9617   -1.1973 C.3       1 <0>        -0.1205
      6 C6         11.3068   -1.5324   -1.1048 C.3       1 <0>         0.0557
      7 O1         11.2368   -0.1240   -0.8733 O.3       1 <0>        -0.3079
      8 C7          9.9990    0.4217   -0.7652 C.ar      1 <0>         0.1661
      9 C8          9.8605    1.7864   -0.5398 C.ar      1 <0>        -0.1572
     10 C9          8.6064    2.3441   -0.4300 C.ar      1 <0>        -0.0099
     11 C10         7.4718    1.5361   -0.5453 C.ar      1 <0>        -0.1794
     12 C11         7.6156    0.1635   -0.7667 C.ar      1 <0>        -0.0458
     13 C12         8.8731   -0.3854   -0.8806 C.ar      1 <0>        -0.2165
     14 C13         6.1262    2.1294   -0.4278 C.2       1 <0>         0.5385
     15 O2          6.0031    3.3225   -0.2303 O.2       1 <0>        -0.4026
     16 N1          5.0334    1.3485   -0.5394 N.am      1 <0>        -0.6399
     17 C14         3.8041    1.8905   -0.4320 C.2       1 <0>         0.5062
     18 S1          3.6307    3.5709   -0.1538 S.2       1 <0>        -0.4707
     19 N2          2.7112    1.1097   -0.5435 N.pl3     1 <0>        -0.6221
     20 C15         1.4372    1.6869   -0.5518 C.ar      1 <0>         0.1596
     21 C16         0.3950    1.0822    0.1402 C.ar      1 <0>        -0.1602
     22 C17        -0.8628    1.6527    0.1327 C.ar      1 <0>        -0.0725
     23 C18        -1.0885    2.8253   -0.5633 C.ar      1 <0>        -0.2048
     24 C19        -0.0502    3.4365   -1.2518 C.ar      1 <0>         0.1448
     25 C20         1.2124    2.8645   -1.2507 C.ar      1 <0>        -0.1100
     26 O3         -0.2723    4.5926   -1.9307 O.3       1 <0>        -0.3012
     27 C21        -1.5585    5.1967   -1.7799 C.3       1 <0>         0.0796
     28 H1         -1.9477    4.9794   -0.7852 H         1 <0>         0.0756
     29 C22        -2.5130    4.6341   -2.8351 C.3       1 <0>        -0.1795
     30 C23        -1.4350    6.7111   -1.9596 C.3       1 <0>        -0.1200
     31 C24        -0.5807    7.2906   -0.8303 C.3       1 <0>        -0.1558
     32 H2         16.3625   -5.5957   -0.9445 H         1 <0>         0.0542
     33 H3         15.9072   -6.9105   -2.0546 H         1 <0>         0.0544
     34 H4         16.3357   -5.3084   -2.7009 H         1 <0>         0.0542
     35 H5         13.9062   -5.9348   -0.9626 H         1 <0>         0.0612
     36 H6         13.8795   -5.6475   -2.7190 H         1 <0>         0.0612
     37 H7         14.7951   -3.3711   -2.3606 H         1 <0>         0.0642
     38 H8         14.8218   -3.6585   -0.6041 H         1 <0>         0.0642
     39 H9         12.3655   -3.9976   -0.6222 H         1 <0>         0.0656
     40 H10        12.3388   -3.7102   -2.3787 H         1 <0>         0.0656
     41 H11        13.2544   -1.4339   -2.0202 H         1 <0>         0.0759
     42 H12        13.2811   -1.7212   -0.2638 H         1 <0>         0.0759
     43 H13        10.8249   -2.0603   -0.2819 H         1 <0>         0.0658
     44 H14        10.7981   -1.7730   -2.0383 H         1 <0>         0.0659
     45 H15        10.7377    2.4100   -0.4504 H         1 <0>         0.1434
     46 H16         8.4996    3.4045   -0.2552 H         1 <0>         0.1490
     47 H17         6.7414   -0.4650   -0.8520 H         1 <0>         0.1246
     48 H18         8.9851   -1.4452   -1.0556 H         1 <0>         0.1366
     49 H19         5.1316    0.3965   -0.6969 H         1 <0>         0.4077
     50 H20         2.8082    0.1474   -0.6181 H         1 <0>         0.4083
     51 H21         0.5687    0.1657    0.6845 H         1 <0>         0.1260
     52 H22        -1.6716    1.1815    0.6714 H         1 <0>         0.1310
     53 H23        -2.0732    3.2691   -0.5673 H         1 <0>         0.1321
     54 H24         2.0208    3.3368   -1.7891 H         1 <0>         0.1495
     55 H25        -2.6011    3.5553   -2.7071 H         1 <0>         0.0623
     56 H26        -3.4941    5.0949   -2.7201 H         1 <0>         0.0724
     57 H27        -2.1239    4.8515   -3.8298 H         1 <0>         0.0680
     58 H28        -0.9636    6.9259   -2.9187 H         1 <0>         0.0743
     59 H29        -2.4269    7.1622   -1.9331 H         1 <0>         0.0811
     60 H30        -0.4927    8.3695   -0.9583 H         1 <0>         0.0573
     61 H31        -1.0521    7.0758    0.1287 H         1 <0>         0.0523
     62 H32         0.4112    6.8395   -0.8569 H         1 <0>         0.0644
@<TRIPOS>BOND
     1    1    2 1
     2    1   32 1
     3    1   33 1
     4    1   34 1
     5    2    3 1
     6    2   35 1
     7    2   36 1
     8    3    4 1
     9    3   37 1
    10    3   38 1
    11    4    5 1
    12    4   39 1
    13    4   40 1
    14    5    6 1
    15    5   41 1
    16    5   42 1
    17    6    7 1
    18    6   43 1
    19    6   44 1
    20    7    8 1
    21    8   13 ar
    22    8    9 ar
    23    9   10 ar
    24    9   45 1
    25   10   11 ar
    26   10   46 1
    27   11   12 ar
    28   11   14 1
    29   12   13 ar
    30   12   47 1
    31   13   48 1
    32   14   15 2
    33   14   16 am
    34   16   17 1
    35   16   49 1
    36   17   18 2
    37   17   19 1
    38   19   20 1
    39   19   50 1
    40   20   25 ar
    41   20   21 ar
    42   21   22 ar
    43   21   51 1
    44   22   23 ar
    45   22   52 1
    46   23   24 ar
    47   23   53 1
    48   24   25 ar
    49   24   26 1
    50   25   54 1
    51   26   27 1
    52   27   28 1
    53   27   29 1
    54   27   30 1
    55   29   55 1
    56   29   56 1
    57   29   57 1
    58   30   31 1
    59   30   58 1
    60   30   59 1
    61   31   60 1
    62   31   61 1
    63   31   62 1
