@<TRIPOS>MOLECULE
ZINC58409755
   48    50     0     0     0
SMALL
USER_CHARGES

@<TRIPOS>ATOM
      1 C1         -0.0168    1.5065    0.0091 C.3       1 <0>        -0.0796
      2 C2          0.0042   -0.0003    0.0021 C.2       1 <0>         0.1116
      3 C3          0.0100   -0.8260   -1.1468 C.2       1 <0>        -0.2205
      4 C4          0.0306   -2.1385   -0.7043 C.2       1 <0>         0.1476
      5 N1          0.0369   -2.1075    0.6400 N.pl3     1 <0>        -0.3430
      6 N2          0.0260   -0.7710    1.0539 N.2       1 <0>        -0.2659
      7 C5          0.0577   -3.2764    1.5228 C.3       1 <0>         0.1246
      8 C6          1.5073   -3.6632    1.8229 C.3       1 <0>        -0.1113
      9 C7          2.1797   -2.5429    2.6189 C.3       1 <0>        -0.1476
     10 C8          1.5313   -4.9556    2.6414 C.3       1 <0>        -0.1465
     11 Cl1         0.0449   -3.5600   -1.7007 Cl        1 <0>         0.0101
     12 C9         -0.0037   -0.3764   -2.5446 C.2       1 <0>         0.0634
     13 C10         0.8955   -0.8728   -3.4230 C.2       1 <0>        -0.2365
     14 C11         0.8822   -0.4390   -4.7718 C.2       1 <0>         0.5705
     15 O1          0.0054    0.3105   -5.1617 O.2       1 <0>        -0.5138
     16 N3          1.8402   -0.8559   -5.6232 N.am      1 <0>        -0.5527
     17 C12         2.8773   -1.8405   -5.3036 C.3       1 <0>         0.0973
     18 C13         3.7151   -1.9743   -6.5857 C.3       1 <0>        -0.0837
     19 C14         3.0657   -1.0229   -7.5654 C.ar      1 <0>        -0.1427
     20 C15         1.9860   -0.4170   -6.9418 C.ar      1 <0>         0.2065
     21 C16         1.2207    0.5059   -7.6571 C.ar      1 <0>        -0.1345
     22 C17         1.5352    0.8039   -8.9660 C.ar      1 <0>        -0.0238
     23 C18         2.6115    0.1908   -9.5802 C.ar      1 <0>        -0.0775
     24 C19         3.3797   -0.7177   -8.8755 C.ar      1 <0>        -0.0108
     25 N4          2.9464    0.5132  -10.9855 N.pl3     1 <0>         0.0404
     26 O2          2.2784    1.3135  -11.5978 O.2       1 <0>        -0.1611
     27 O3          3.8879   -0.0239  -11.5211 O.3       1 <0>        -0.1637
     28 H1          1.0056    1.8842    0.0005 H         1 <0>         0.0850
     29 H2         -0.5446    1.8666   -0.8740 H         1 <0>         0.0844
     30 H3         -0.5267    1.8586    0.9058 H         1 <0>         0.0822
     31 H4         -0.4549   -3.0373    2.4546 H         1 <0>         0.1070
     32 H5         -0.4470   -4.1098    1.0341 H         1 <0>         0.0988
     33 H6          2.0438   -3.8161    0.8865 H         1 <0>         0.0758
     34 H7          1.6432   -2.3900    3.5553 H         1 <0>         0.0600
     35 H8          3.2124   -2.8184    2.8327 H         1 <0>         0.0586
     36 H9          2.1626   -1.6221    2.0358 H         1 <0>         0.0593
     37 H10         1.0522   -5.7538    2.0743 H         1 <0>         0.0598
     38 H11         2.5640   -5.2312    2.8552 H         1 <0>         0.0665
     39 H12         0.9947   -4.8027    3.5778 H         1 <0>         0.0620
     40 H13        -0.7324    0.3510   -2.8708 H         1 <0>         0.1442
     41 H14         1.6241   -1.6002   -3.0969 H         1 <0>         0.1300
     42 H15         3.4979   -1.4828   -4.4820 H         1 <0>         0.0940
     43 H16         2.4236   -2.7978   -5.0468 H         1 <0>         0.0924
     44 H17         4.7477   -1.6801   -6.3976 H         1 <0>         0.1022
     45 H18         3.6726   -2.9961   -6.9628 H         1 <0>         0.1019
     46 H19         0.3784    0.9881   -7.1833 H         1 <0>         0.1629
     47 H20         0.9386    1.5185   -9.5135 H         1 <0>         0.1593
     48 H21         4.2202   -1.1983   -9.3541 H         1 <0>         0.1565
@<TRIPOS>BOND
     1    1    2 1
     2    1   28 1
     3    1   29 1
     4    1   30 1
     5    2    6 2
     6    2    3 1
     7    3    4 2
     8    3   12 1
     9    4    5 1
    10    4   11 1
    11    5    6 1
    12    5    7 1
    13    7    8 1
    14    7   31 1
    15    7   32 1
    16    8    9 1
    17    8   10 1
    18    8   33 1
    19    9   34 1
    20    9   35 1
    21    9   36 1
    22   10   37 1
    23   10   38 1
    24   10   39 1
    25   12   13 2
    26   12   40 1
    27   13   14 1
    28   13   41 1
    29   14   15 2
    30   14   16 am
    31   16   20 1
    32   16   17 1
    33   17   18 1
    34   17   42 1
    35   17   43 1
    36   18   19 1
    37   18   44 1
    38   18   45 1
    39   19   24 ar
    40   19   20 ar
    41   20   21 ar
    42   21   22 ar
    43   21   46 1
    44   22   23 ar
    45   22   47 1
    46   23   24 ar
    47   23   25 1
    48   24   48 1
    49   25   26 2
    50   25   27 1
