@<TRIPOS>MOLECULE
ZINC25560051
   29    31     0     0     0
SMALL
USER_CHARGES
N-(4-cyclopropylthiazol-2-yl)-4-iodo-benzamide
@<TRIPOS>ATOM
      1 C1          6.6943    1.2572   -3.5200 C.ar      1 <0>        -0.0783
      2 C2          7.7609    1.0375   -4.3664 C.ar      1 <0>        -0.0898
      3 C3          8.9308    1.7616   -4.2128 C.ar      1 <0>        -0.0731
      4 C4          9.0360    2.7146   -3.2141 C.ar      1 <0>        -0.0898
      5 C5          7.9744    2.9481   -2.3651 C.ar      1 <0>        -0.0470
      6 C6          6.7919    2.2210   -2.5145 C.ar      1 <0>        -0.1156
      7 C7          5.6507    2.4661   -1.6084 C.2       1 <0>         0.5637
      8 O1          5.7402    3.3024   -0.7306 O.2       1 <0>        -0.4930
      9 N1          4.5106    1.7626   -1.7551 N.am      1 <0>        -0.6198
     10 C8          3.4378    1.9930   -0.9034 C.2       1 <0>         0.2893
     11 N2          2.2530    1.4137   -0.8875 N.2       1 <0>        -0.5464
     12 C9          1.3379    1.7542   -0.0013 C.2       1 <0>         0.0946
     13 C10         1.6382    2.7233    0.8976 C.2       1 <0>        -0.2728
     14 S1          3.3125    3.1177    0.4137 S.3       1 <0>         0.1484
     15 C11        -0.0127    1.0858    0.0080 C.3       1 <0>        -0.1805
     16 C12        -1.1356    1.7728    0.7878 C.3       1 <0>        -0.1180
     17 C13        -1.1502    1.7810   -0.7428 C.3       1 <0>        -0.1147
     18 I1         10.5488    1.4141   -5.4975 I         1 <0>        -0.0239
     19 H1          5.7840    0.6881   -3.6376 H         1 <0>         0.1366
     20 H2          7.6848    0.2960   -5.1478 H         1 <0>         0.1413
     21 H3          9.9511    3.2766   -3.0999 H         1 <0>         0.1422
     22 H4          8.0576    3.6921   -1.5867 H         1 <0>         0.1497
     23 H5          4.4296    1.0059   -2.5493 H         1 <0>         0.4505
     24 H6          1.0329    3.1412    1.6885 H         1 <0>         0.1944
     25 H7          0.4334    0.0804   -0.0017 H         1 <0>         0.1344
     26 H8         -1.6477    1.0335    1.4212 H         1 <0>         0.1085
     27 H9         -0.7106    2.5660    1.4205 H         1 <0>         0.1032
     28 H10        -0.7372    2.5809   -1.3749 H         1 <0>         0.0993
     29 H11        -1.6743    1.0485   -1.3742 H         1 <0>         0.1067
@<TRIPOS>BOND
     1    1    6 ar
     2    1    2 ar
     3    1   19 1
     4    2    3 ar
     5    2   20 1
     6    3    4 ar
     7    3   18 1
     8    4    5 ar
     9    4   21 1
    10    5    6 ar
    11    5   22 1
    12    6    7 1
    13    7    8 2
    14    7    9 am
    15    9   10 1
    16    9   23 1
    17   10   14 1
    18   10   11 2
    19   11   12 1
    20   12   13 2
    21   12   15 1
    22   13   14 1
    23   13   24 1
    24   15   17 1
    25   15   16 1
    26   15   25 1
    27   16   17 1
    28   16   26 1
    29   16   27 1
    30   17   28 1
    31   17   29 1
