@<TRIPOS>MOLECULE
ZINC13358573
   47    49     0     0     0
SMALL
USER_CHARGES
2-(6-ethyl-2-oxo-thieno[2,3-b][1,4]thiazin-1-yl)-N-[(4-ethylphenyl)methyl]acetamide
@<TRIPOS>ATOM
      1 C1          1.5406   10.9236    6.5880 C.3       1 <0>        -0.1479
      2 C2          1.3635   10.7395    5.0795 C.3       1 <0>        -0.0888
      3 C3          1.4037    9.2707    4.7446 C.ar      1 <0>        -0.0709
      4 C4          0.2360    8.5310    4.7383 C.ar      1 <0>        -0.1199
      5 C5          0.2727    7.1840    4.4302 C.ar      1 <0>        -0.0963
      6 C6          1.4772    6.5767    4.1279 C.ar      1 <0>        -0.1169
      7 C7          2.6457    7.3152    4.1394 C.ar      1 <0>        -0.0956
      8 C8          2.6083    8.6633    4.4432 C.ar      1 <0>        -0.1193
      9 C9          1.5173    5.1081    3.7920 C.3       1 <0>         0.1645
     10 N1          1.3466    4.9328    2.3476 N.am      1 <0>        -0.7247
     11 C10         1.3491    3.6951    1.8141 C.2       1 <0>         0.5010
     12 O1          1.4926    2.7265    2.5298 O.2       1 <0>        -0.5179
     13 C11         1.1736    3.5147    0.3283 C.3       1 <0>         0.0857
     14 N2          1.2125    2.0871    0.0017 N.am      1 <0>        -0.5150
     15 C12        -0.0166    1.3711    0.0096 C.2       1 <0>         0.1409
     16 C13        -1.2839    1.9572    0.0306 C.2       1 <0>        -0.1679
     17 C14        -2.3927    1.1798    0.0378 C.2       1 <0>        -0.1149
     18 S1         -1.6985   -0.4683    0.0229 S.3       1 <0>         0.1601
     19 C15         0.0021   -0.0041    0.0020 C.2       1 <0>        -0.2593
     20 S2          1.4518   -0.9856   -0.0244 S.3       1 <0>         0.0200
     21 C16         2.6452    0.1582   -0.7955 C.3       1 <0>        -0.1247
     22 C17         2.3952    1.5476   -0.2828 C.2       1 <0>         0.5234
     23 O2          3.3702    2.2489   -0.1103 O.2       1 <0>        -0.5154
     24 C18        -3.8408    1.5967    0.0577 C.3       1 <0>        -0.0420
     25 C19        -4.3489    1.7438   -1.3779 C.3       1 <0>        -0.1497
     26 H1          0.7364   10.4090    7.1137 H         1 <0>         0.0562
     27 H2          2.5001   10.5072    6.8947 H         1 <0>         0.0562
     28 H3          1.5115   11.9860    6.8302 H         1 <0>         0.0599
     29 H4          2.1678   11.2542    4.5537 H         1 <0>         0.0732
     30 H5          0.4041   11.1560    4.7728 H         1 <0>         0.0731
     31 H6         -0.7052    9.0056    4.9737 H         1 <0>         0.1239
     32 H7         -0.6396    6.6060    4.4253 H         1 <0>         0.1235
     33 H8          3.5873    6.8398    3.9075 H         1 <0>         0.1242
     34 H9          3.5207    9.2412    4.4478 H         1 <0>         0.1242
     35 H10         0.7135    4.5930    4.3180 H         1 <0>         0.0765
     36 H11         2.4770    4.6916    4.0977 H         1 <0>         0.0765
     37 H12         1.2319    5.7074    1.7752 H         1 <0>         0.4021
     38 H13         1.9774    4.0298   -0.1978 H         1 <0>         0.1251
     39 H14         0.2139    3.9313    0.0225 H         1 <0>         0.1158
     40 H15        -1.3800    3.0329    0.0356 H         1 <0>         0.1369
     41 H16         3.6600   -0.1473   -0.5405 H         1 <0>         0.1536
     42 H17         2.5193    0.1411   -1.8781 H         1 <0>         0.1286
     43 H18        -4.4297    0.8398    0.5759 H         1 <0>         0.0853
     44 H19        -3.9372    2.5503    0.5768 H         1 <0>         0.0896
     45 H20        -5.3963    2.0453   -1.3635 H         1 <0>         0.0674
     46 H21        -3.7600    2.5006   -1.8960 H         1 <0>         0.0594
     47 H22        -4.2524    0.7901   -1.8970 H         1 <0>         0.0601
@<TRIPOS>BOND
     1    1    2 1
     2    1   26 1
     3    1   27 1
     4    1   28 1
     5    2    3 1
     6    2   29 1
     7    2   30 1
     8    3    8 ar
     9    3    4 ar
    10    4    5 ar
    11    4   31 1
    12    5    6 ar
    13    5   32 1
    14    6    7 ar
    15    6    9 1
    16    7    8 ar
    17    7   33 1
    18    8   34 1
    19    9   10 1
    20    9   35 1
    21    9   36 1
    22   10   11 am
    23   10   37 1
    24   11   12 2
    25   11   13 1
    26   13   14 1
    27   13   38 1
    28   13   39 1
    29   14   22 am
    30   14   15 1
    31   15   19 2
    32   15   16 1
    33   16   17 2
    34   16   40 1
    35   17   18 1
    36   17   24 1
    37   18   19 1
    38   19   20 1
    39   20   21 1
    40   21   22 1
    41   21   41 1
    42   21   42 1
    43   22   23 2
    44   24   25 1
    45   24   43 1
    46   24   44 1
    47   25   45 1
    48   25   46 1
    49   25   47 1
