@<TRIPOS>MOLECULE
ZINC11621437
   38    41     0     0     0
SMALL
USER_CHARGES
(2-bromophenyl)aminomethyl-methyl-BLAHone
@<TRIPOS>ATOM
      1 C1         -6.8018   -4.3637    0.9608 C.3       1 <0>         0.0782
      2 N1         -5.5090   -3.9406    1.5047 N.am      1 <0>        -0.5085
      3 C2         -5.2974   -3.9977    2.8362 C.2       1 <0>         0.5654
      4 O1         -6.1692   -4.3966    3.5847 O.2       1 <0>        -0.4869
      5 C3         -3.9910   -3.5688    3.3679 C.ar      1 <0>        -0.1575
      6 C4         -3.7163   -3.6066    4.7336 C.ar      1 <0>        -0.0234
      7 C5         -2.4819   -3.1968    5.1918 C.ar      1 <0>        -0.1244
      8 C6         -1.5173   -2.7502    4.3022 C.ar      1 <0>        -0.0530
      9 C7         -1.7773   -2.7080    2.9469 C.ar      1 <0>        -0.1401
     10 C8         -3.0130   -3.1157    2.4677 C.ar      1 <0>         0.1634
     11 N2         -3.3038   -3.0915    1.1096 N.pl3     1 <0>        -0.4299
     12 C9         -4.5242   -3.4892    0.6464 C.2       1 <0>         0.4228
     13 N3         -4.4987   -3.3470   -0.6604 N.2       1 <0>        -0.2860
     14 N4         -3.3562   -2.8872   -1.0283 N.2       1 <0>        -0.2224
     15 C10        -2.5887   -2.7090    0.0112 C.2       1 <0>         0.1629
     16 C11        -1.1756   -2.1855    0.0011 C.3       1 <0>         0.2119
     17 N5         -1.1841   -0.7509    0.2980 N.pl3     1 <0>        -0.7429
     18 C12         0.0178   -0.0399    0.3442 C.ar      1 <0>         0.2424
     19 C13         1.2216   -0.6915    0.1085 C.ar      1 <0>        -0.1922
     20 C14         2.4078    0.0143    0.1545 C.ar      1 <0>        -0.0532
     21 C15         2.3984    1.3686    0.4344 C.ar      1 <0>        -0.1682
     22 C16         1.2023    2.0209    0.6701 C.ar      1 <0>        -0.0417
     23 C17         0.0115    1.3209    0.6257 C.ar      1 <0>        -0.1643
     24 Br1        -1.6247    2.2153    0.9398 Br        1 <0>        -0.0526
     25 H1         -6.7675   -5.4282    0.7286 H         1 <0>         0.0791
     26 H2         -7.5841   -4.1774    1.6966 H         1 <0>         0.0983
     27 H3         -7.0158   -3.8005    0.0524 H         1 <0>         0.0960
     28 H4         -4.4659   -3.9541    5.4291 H         1 <0>         0.1540
     29 H5         -2.2655   -3.2240    6.2496 H         1 <0>         0.1467
     30 H6         -0.5540   -2.4321    4.6725 H         1 <0>         0.1462
     31 H7         -1.0195   -2.3585    2.2613 H         1 <0>         0.1480
     32 H8         -0.7340   -2.3505   -0.9817 H         1 <0>         0.1111
     33 H9         -0.5886   -2.7092    0.7557 H         1 <0>         0.0901
     34 H10        -2.0242   -0.2947    0.4624 H         1 <0>         0.4070
     35 H11         1.2299   -1.7489   -0.1109 H         1 <0>         0.1309
     36 H12         3.3440   -0.4920   -0.0287 H         1 <0>         0.1305
     37 H13         3.3276    1.9180    0.4690 H         1 <0>         0.1297
     38 H14         1.1985    3.0785    0.8888 H         1 <0>         0.1326
@<TRIPOS>BOND
     1    1    2 1
     2    1   25 1
     3    1   26 1
     4    1   27 1
     5    2   12 1
     6    2    3 am
     7    3    4 2
     8    3    5 1
     9    5   10 ar
    10    5    6 ar
    11    6    7 ar
    12    6   28 1
    13    7    8 ar
    14    7   29 1
    15    8    9 ar
    16    8   30 1
    17    9   10 ar
    18    9   31 1
    19   10   11 1
    20   11   15 1
    21   11   12 1
    22   12   13 2
    23   13   14 1
    24   14   15 2
    25   15   16 1
    26   16   17 1
    27   16   32 1
    28   16   33 1
    29   17   18 1
    30   17   34 1
    31   18   23 ar
    32   18   19 ar
    33   19   20 ar
    34   19   35 1
    35   20   21 ar
    36   20   36 1
    37   21   22 ar
    38   21   37 1
    39   22   23 ar
    40   22   38 1
    41   23   24 1
