@<TRIPOS>MOLECULE
ZINC42676094
   39    41     0     0     0
SMALL
USER_CHARGES

@<TRIPOS>ATOM
      1 C1          0.0779    1.3000   -0.1675 C.3       1 <0>        -0.1796
      2 C2          0.1006   -0.2219   -0.0126 C.3       1 <0>         0.2186
      3 H1          0.5752   -0.6744   -0.8833 H         1 <0>         0.0856
      4 C3         -1.3261   -0.7487    0.1311 C.2       1 <0>        -0.1320
      5 C4         -2.3701   -0.3643   -0.7088 C.2       1 <0>        -0.1440
      6 C5         -3.6091   -0.8752   -0.5252 C.2       1 <0>        -0.1734
      7 S1         -3.3590   -1.9515    0.8785 S.3       1 <0>         0.0423
      8 C6         -1.6295   -1.6380    1.1152 C.2       1 <0>        -0.1385
      9 C7         -0.7161   -2.2085    2.1509 C.3       1 <0>        -0.0579
     10 C8          0.7368   -1.9618    1.7159 C.3       1 <0>         0.1250
     11 N1          0.8400   -0.5874    1.2032 N.pl3     1 <0>        -1.0032
     12 S2          1.7750    0.5330    1.9860 S.o2      1 <0>         2.7807
     13 O1          1.1368    1.7901    1.8084 O.2       1 <0>        -0.9670
     14 O2          2.0594   -0.0022    3.2713 O.2       1 <0>        -0.9741
     15 N2          3.2182    0.6166    1.1782 N.pl3     1 <0>        -1.0046
     16 C9          4.2641   -0.3894    1.4081 C.3       1 <0>         0.1229
     17 C10         4.6815   -0.9837    0.0592 C.3       1 <0>        -0.1350
     18 C11         5.0938    0.1469   -0.8862 C.3       1 <0>        -0.1180
     19 C12         3.9034    1.0805   -1.1173 C.3       1 <0>        -0.1356
     20 C13         3.4748    1.6947    0.2136 C.3       1 <0>         0.1118
     21 H2          1.1001    1.6777   -0.1952 H         1 <0>         0.0711
     22 H3         -0.4319    1.5634   -1.0942 H         1 <0>         0.0714
     23 H4         -0.4504    1.7433    0.6766 H         1 <0>         0.0963
     24 H5         -2.1899    0.3417   -1.5060 H         1 <0>         0.1338
     25 H6         -4.5142   -0.6822   -1.0819 H         1 <0>         0.1876
     26 H7         -0.8989   -1.7206    3.1083 H         1 <0>         0.0901
     27 H8         -0.8929   -3.2800    2.2442 H         1 <0>         0.0959
     28 H9          1.4022   -2.0862    2.5702 H         1 <0>         0.1040
     29 H10         1.0100   -2.6670    0.9310 H         1 <0>         0.0802
     30 H11         5.1255    0.0808    1.8824 H         1 <0>         0.0746
     31 H12         3.8763   -1.1794    2.0511 H         1 <0>         0.0827
     32 H13         5.5229   -1.6612    0.2049 H         1 <0>         0.0756
     33 H14         3.8435   -1.5312   -0.3721 H         1 <0>         0.0669
     34 H15         5.9157    0.7093   -0.4430 H         1 <0>         0.0653
     35 H16         5.4147   -0.2750   -1.8386 H         1 <0>         0.0657
     36 H17         4.1909    1.8722   -1.8091 H         1 <0>         0.0767
     37 H18         3.0727    0.5135   -1.5376 H         1 <0>         0.0665
     38 H19         2.5664    2.2794    0.0689 H         1 <0>         0.0974
     39 H20         4.2704    2.3387    0.5884 H         1 <0>         0.0741
@<TRIPOS>BOND
     1    1    2 1
     2    1   21 1
     3    1   22 1
     4    1   23 1
     5    2    3 1
     6    2   11 1
     7    2    4 1
     8    4    8 2
     9    4    5 1
    10    5    6 2
    11    5   24 1
    12    6    7 1
    13    6   25 1
    14    7    8 1
    15    8    9 1
    16    9   10 1
    17    9   26 1
    18    9   27 1
    19   10   11 1
    20   10   28 1
    21   10   29 1
    22   11   12 1
    23   12   13 2
    24   12   14 2
    25   12   15 1
    26   15   20 1
    27   15   16 1
    28   16   17 1
    29   16   30 1
    30   16   31 1
    31   17   18 1
    32   17   32 1
    33   17   33 1
    34   18   19 1
    35   18   34 1
    36   18   35 1
    37   19   20 1
    38   19   36 1
    39   19   37 1
    40   20   38 1
    41   20   39 1
