@<TRIPOS>MOLECULE
CHEMBL204727
   32    35     0     0     0
SMALL
USER_CHARGES

@<TRIPOS>ATOM
      1 C1          0.1779    1.5231    0.0283 C.ar      1 <0>        -0.1503
      2 C2          1.4097    2.1614   -0.0049 C.ar      1 <0>        -0.0479
      3 C3          2.5790    1.4322   -0.0356 C.ar      1 <0>        -0.1658
      4 C4          2.5273    0.0419   -0.0330 C.ar      1 <0>         0.2182
      5 C5          1.2768   -0.6001    0.0012 C.ar      1 <0>        -0.1528
      6 C6          0.1034    0.1585    0.0315 C.ar      1 <0>        -0.0482
      7 C7          1.2292   -2.0680    0.0038 C.2       1 <0>         0.3734
      8 C8          2.4386   -2.7657   -0.0281 C.2       1 <0>        -0.3012
      9 C9          3.6587   -2.0492   -0.0615 C.2       1 <0>         0.5792
     10 N1          3.6871   -0.7062   -0.0630 N.am      1 <0>        -0.6368
     11 O1          4.7095   -2.6658   -0.0887 O.2       1 <0>        -0.5575
     12 C10         2.4444   -4.2378   -0.0264 C.2       1 <0>         0.4070
     13 N2          1.3771   -4.9983   -0.1159 N.2       1 <0>        -0.5302
     14 C11         1.7470   -6.3012   -0.0844 C.ar      1 <0>         0.0184
     15 C12         1.0402   -7.5070   -0.1439 C.ar      1 <0>        -0.0321
     16 C13         1.7573   -8.6875   -0.0837 C.ar      1 <0>        -0.1794
     17 C14         3.1369   -8.6437    0.0323 C.ar      1 <0>         0.1288
     18 N3          3.7847   -7.4973    0.0868 N.ar      1 <0>        -0.4805
     19 H1          4.4808   -4.7110    0.1358 H         1 <0>         0.4394
     20 C15         3.1491   -6.3386    0.0335 C.ar      1 <0>         0.2380
     21 N4          3.5652   -5.0228    0.0629 N.pl3     1 <0>        -0.5703
     22 N5          0.0292   -2.7357    0.0370 N.pl3     1 <0>        -0.8018
     23 H2         -0.7288    2.1092    0.0563 H         1 <0>         0.1356
     24 H3          1.4525    3.2406   -0.0069 H         1 <0>         0.1377
     25 H4          3.5326    1.9387   -0.0620 H         1 <0>         0.1407
     26 H5         -0.8586   -0.3318    0.0578 H         1 <0>         0.1333
     27 H6         -0.0360   -7.5155   -0.2340 H         1 <0>         0.1403
     28 H7          1.2452   -9.6374   -0.1264 H         1 <0>         0.1443
     29 H8          3.6932   -9.5682    0.0794 H         1 <0>         0.1657
     30 H9         -0.7987   -2.2406    0.1389 H         1 <0>         0.4023
     31 H10         0.0098   -3.7024   -0.0413 H         1 <0>         0.4328
     32 H11         4.5433   -0.2510   -0.0868 H         1 <0>         0.4196
@<TRIPOS>BOND
     1    1    6 ar
     2    1    2 ar
     3    1   23 1
     4    2    3 ar
     5    2   24 1
     6    3    4 ar
     7    3   25 1
     8    4   10 1
     9    4    5 ar
    10    5    6 ar
    11    5    7 1
    12    6   26 1
    13    7    8 2
    14    7   22 1
    15    8    9 1
    16    8   12 1
    17    9   10 am
    18    9   11 2
    19   10   32 1
    20   12   21 1
    21   12   13 2
    22   13   14 1
    23   14   15 ar
    24   14   20 ar
    25   15   16 ar
    26   15   27 1
    27   16   17 ar
    28   16   28 1
    29   17   18 ar
    30   17   29 1
    31   18   20 ar
    32   19   21 1
    33   20   21 1
    34   22   30 1
    35   22   31 1
