@<TRIPOS>MOLECULE
CHEMBL595615
   72    77     0     0     0
SMALL
USER_CHARGES

@<TRIPOS>ATOM
      1 C1          1.6802    1.1103   -0.8515 C.3       1 <0>        -0.0459
      2 N1          1.4675   -0.3401   -0.7573 N.4       1 <0>        -0.3887
      3 C2          0.0328   -0.6154   -0.6045 C.3       1 <0>        -0.0025
      4 C3         -0.1911   -2.1271   -0.5252 C.3       1 <0>         0.0252
      5 N2          0.5542   -2.6705    0.6191 N.3       1 <0>        -0.5382
      6 C4          1.9895   -2.3808    0.4922 C.3       1 <0>         0.0187
      7 C5          2.1955   -0.8670    0.4046 C.3       1 <0>        -0.0026
      8 C6          0.3191   -4.1134    0.7631 C.3       1 <0>         0.0578
      9 C7          0.9009   -4.5946    2.0939 C.3       1 <0>        -0.1172
     10 C8          0.6561   -6.0974    2.2439 C.3       1 <0>         0.0535
     11 O1          1.1995   -6.5468    3.4868 O.3       1 <0>        -0.2950
     12 C9          1.0659   -7.8672    3.7769 C.ar      1 <0>         0.1634
     13 C10         0.4329   -8.7008    2.8815 C.ar      1 <0>        -0.1821
     14 C11         0.2965  -10.0612    3.1831 C.ar      1 <0>         0.2011
     15 C12         0.8124  -10.5589    4.4055 C.ar      1 <0>        -0.1817
     16 C13         1.4515   -9.6905    5.2984 C.ar      1 <0>        -0.1431
     17 C14         1.5787   -8.3678    4.9817 C.ar      1 <0>         0.1082
     18 O2          2.2050   -7.5263    5.8470 O.3       1 <0>        -0.3022
     19 C15         2.7061   -8.0962    7.0579 C.3       1 <0>         0.0207
     20 C16         0.6599  -11.9383    4.6822 C.ar      1 <0>         0.4661
     21 N3          0.0424  -12.6940    3.7837 N.ar      1 <0>        -0.5760
     22 C17        -0.4237  -12.1847    2.6545 C.ar      1 <0>         0.3479
     23 N4         -0.3114  -10.9151    2.3446 N.ar      1 <0>        -0.5450
     24 N5          1.1415  -12.4832    5.8560 N.pl3     1 <0>        -0.6391
     25 C18         1.0890  -13.8625    6.0577 C.ar      1 <0>         0.1737
     26 C19         1.2874  -14.7285    4.9874 C.ar      1 <0>        -0.1103
     27 C20         1.2362  -16.0910    5.1834 C.ar      1 <0>        -0.0436
     28 C21         0.9848  -16.6026    6.4583 C.ar      1 <0>        -0.0374
     29 C22         0.7861  -15.7306    7.5309 C.ar      1 <0>        -0.0630
     30 C23         0.8441  -14.3691    7.3297 C.ar      1 <0>        -0.1436
     31 C24         0.9288  -18.0635    6.6719 C.2       1 <0>         0.2042
     32 N6          1.0939  -19.0324    5.7973 N.2       1 <0>        -0.4976
     33 C25         1.0153  -20.3343    6.1354 C.ar      1 <0>         0.0772
     34 C26         1.1708  -21.4658    5.2993 C.ar      1 <0>        -0.0592
     35 C27         1.0590  -22.7242    5.8018 C.ar      1 <0>        -0.1110
     36 C28         0.7904  -22.9518    7.1445 C.ar      1 <0>        -0.0901
     37 C29         0.6319  -21.8742    7.9959 C.ar      1 <0>        -0.0688
     38 C30         0.7424  -20.5989    7.4984 C.ar      1 <0>        -0.1395
     39 S1          0.6274  -18.9648    8.1857 S.3       1 <0>        -0.0074
     40 H1          2.7447    1.3148   -0.9662 H         1 <0>         0.1244
     41 H2          1.1401    1.5015   -1.7137 H         1 <0>         0.1244
     42 H3          1.3137    1.5910    0.0556 H         1 <0>         0.1233
     43 H4         -0.3319   -0.1457    0.3090 H         1 <0>         0.1381
     44 H5         -0.5077   -0.2125   -1.4610 H         1 <0>         0.1366
     45 H6         -1.2541   -2.3311   -0.3968 H         1 <0>         0.1249
     46 H7          0.1611   -2.5956   -1.4442 H         1 <0>         0.0619
     47 H8          2.5174   -2.7699    1.3629 H         1 <0>         0.1268
     48 H9          2.3776   -2.8535   -0.4100 H         1 <0>         0.0622
     49 H10         3.2583   -0.6506    0.2962 H         1 <0>         0.1363
     50 H11         1.8196   -0.3960    1.3129 H         1 <0>         0.1382
     51 H12        -0.7527   -4.3108    0.7426 H         1 <0>         0.0942
     52 H13         0.8020   -4.6439   -0.0576 H         1 <0>         0.0522
     53 H14         1.9727   -4.3973    2.1143 H         1 <0>         0.0765
     54 H15         0.4181   -4.0641    2.9145 H         1 <0>         0.0901
     55 H16        -0.4157   -6.2948    2.2234 H         1 <0>         0.0718
     56 H17         1.1390   -6.6279    1.4232 H         1 <0>         0.0684
     57 H18         0.0442   -8.3077    1.9537 H         1 <0>         0.1529
     58 H19         1.8462  -10.0654    6.2312 H         1 <0>         0.1409
     59 H20         3.1810   -7.3185    7.6561 H         1 <0>         0.1077
     60 H21         1.8825   -8.5354    7.6208 H         1 <0>         0.0588
     61 H22         3.4369   -8.8692    6.8205 H         1 <0>         0.0587
     62 H23        -0.9186  -12.8441    1.9568 H         1 <0>         0.1998
     63 H24         1.5162  -11.9069    6.5403 H         1 <0>         0.4208
     64 H25         1.4814  -14.3322    4.0016 H         1 <0>         0.1420
     65 H26         1.3900  -16.7629    4.3520 H         1 <0>         0.1415
     66 H27         0.5915  -16.1233    8.5180 H         1 <0>         0.1342
     67 H28         0.6948  -13.6943    8.1596 H         1 <0>         0.1352
     68 H29         1.3805  -21.3278    4.2488 H         1 <0>         0.1341
     69 H30         1.1820  -23.5682    5.1394 H         1 <0>         0.1365
     70 H31         0.7058  -23.9608    7.5203 H         1 <0>         0.1414
     71 H32         0.4222  -22.0339    9.0432 H         1 <0>         0.1358
     72 H33         1.8074   -0.7849   -1.5968 H         1 <0>         0.4225
@<TRIPOS>BOND
     1    1    2 1
     2    1   40 1
     3    1   41 1
     4    1   42 1
     5    2    7 1
     6    2    3 1
     7    2   72 1
     8    3    4 1
     9    3   43 1
    10    3   44 1
    11    4    5 1
    12    4   45 1
    13    4   46 1
    14    5    6 1
    15    5    8 1
    16    6    7 1
    17    6   47 1
    18    6   48 1
    19    7   49 1
    20    7   50 1
    21    8    9 1
    22    8   51 1
    23    8   52 1
    24    9   10 1
    25    9   53 1
    26    9   54 1
    27   10   11 1
    28   10   55 1
    29   10   56 1
    30   11   12 1
    31   12   17 ar
    32   12   13 ar
    33   13   14 ar
    34   13   57 1
    35   14   23 ar
    36   14   15 ar
    37   15   16 ar
    38   15   20 ar
    39   16   17 ar
    40   16   58 1
    41   17   18 1
    42   18   19 1
    43   19   59 1
    44   19   60 1
    45   19   61 1
    46   20   21 ar
    47   20   24 1
    48   21   22 ar
    49   22   23 ar
    50   22   62 1
    51   24   25 1
    52   24   63 1
    53   25   30 ar
    54   25   26 ar
    55   26   27 ar
    56   26   64 1
    57   27   28 ar
    58   27   65 1
    59   28   29 ar
    60   28   31 1
    61   29   30 ar
    62   29   66 1
    63   30   67 1
    64   31   39 1
    65   31   32 2
    66   32   33 1
    67   33   38 ar
    68   33   34 ar
    69   34   35 ar
    70   34   68 1
    71   35   36 ar
    72   35   69 1
    73   36   37 ar
    74   36   70 1
    75   37   38 ar
    76   37   71 1
    77   38   39 1
