@<TRIPOS>MOLECULE
CHEMBL178174
   59    62     0     0     0
SMALL
USER_CHARGES

@<TRIPOS>ATOM
      1 C1          0.2892    1.4902   -0.0006 C.3       1 <0>        -0.1078
      2 C2          0.1646   -0.0116   -0.0026 C.ar      1 <0>        -0.1271
      3 C3         -0.2109   -0.6714   -1.1576 C.ar      1 <0>        -0.0861
      4 C4         -0.3263   -2.0477   -1.1635 C.ar      1 <0>        -0.1554
      5 C5         -0.0643   -2.7727   -0.0072 C.ar      1 <0>         0.1515
      6 C6          0.3134   -2.1117    1.1533 C.ar      1 <0>        -0.1764
      7 C7          0.4327   -0.7307    1.1536 C.ar      1 <0>         0.1231
      8 O1          0.8068   -0.0808    2.2870 O.3       1 <0>        -0.4934
      9 N1         -0.1813   -4.1654   -0.0128 N.pl3     1 <0>        -0.6170
     10 C8         -0.2438   -4.8487   -1.2123 C.2       1 <0>         0.5253
     11 C9         -0.2262   -6.2621   -1.2322 C.2       1 <0>        -0.0866
     12 C10        -0.1551   -7.2302   -0.2491 C.2       1 <0>        -0.1020
     13 C11        -0.1779   -8.4712   -0.8956 C.2       1 <0>         0.0984
     14 C12        -0.2610   -8.2415   -2.2376 C.2       1 <0>         0.0588
     15 N2         -0.2910   -6.9057   -2.4533 N.pl3     1 <0>        -0.2313
     16 N3         -0.3699   -6.1237   -3.6142 N.2       1 <0>        -0.3385
     17 C13        -0.3809   -4.8219   -3.5255 C.2       1 <0>         0.3216
     18 N4         -0.3262   -4.1881   -2.3556 N.2       1 <0>        -0.6031
     19 N5         -0.1242   -9.7308   -0.2726 N.am      1 <0>        -0.6170
     20 C14        -0.1544  -10.8532   -1.0182 C.2       1 <0>         0.6520
     21 O2         -0.2281  -10.7767   -2.2288 O.2       1 <0>        -0.5520
     22 O3         -0.1030  -12.0594   -0.4217 O.3       1 <0>        -0.3567
     23 C15        -0.1393  -13.2064   -1.2732 C.3       1 <0>         0.0907
     24 C16        -0.0717  -14.4759   -0.4220 C.3       1 <0>        -0.1383
     25 C17        -0.1106  -15.7040   -1.3337 C.3       1 <0>         0.1456
     26 N6         -0.0459  -16.9196   -0.5186 N.pl3     1 <0>        -0.1589
     27 N7          1.0429  -17.5090   -0.1710 N.2       1 <0>        -0.2885
     28 C18         0.7394  -18.5631    0.5520 C.2       1 <0>        -0.0248
     29 C19        -0.6551  -18.5853    0.6296 C.2       1 <0>        -0.0248
     30 N8         -1.0700  -17.5394   -0.0487 N.2       1 <0>        -0.2886
     31 C20        -0.0687   -6.9946    1.2369 C.3       1 <0>        -0.0264
     32 C21        -1.2656   -7.6510    1.9279 C.3       1 <0>        -0.1484
     33 C22         1.2278   -7.6033    1.7752 C.3       1 <0>        -0.1478
     34 H1          1.3049    1.7709   -0.2793 H         1 <0>         0.0708
     35 H2         -0.4144    1.9141   -0.7171 H         1 <0>         0.0659
     36 H3          0.0672    1.8719    0.9960 H         1 <0>         0.0658
     37 H4         -0.4150   -0.1096   -2.0572 H         1 <0>         0.1309
     38 H5         -0.6206   -2.5608   -2.0672 H         1 <0>         0.1971
     39 H6          0.5177   -2.6726    2.0534 H         1 <0>         0.1293
     40 H7          0.0678    0.1770    2.8548 H         1 <0>         0.3893
     41 H8         -0.2188   -4.6523    0.8253 H         1 <0>         0.4215
     42 H9         -0.2974   -9.0020   -3.0036 H         1 <0>         0.2079
     43 H10        -0.4422   -4.2382   -4.4321 H         1 <0>         0.2237
     44 H11        -0.0654   -9.7919    0.6936 H         1 <0>         0.4205
     45 H12        -1.0655  -13.2031   -1.8479 H         1 <0>         0.0798
     46 H13         0.7111  -13.1801   -1.9546 H         1 <0>         0.0798
     47 H14         0.8545  -14.4792    0.1527 H         1 <0>         0.0885
     48 H15        -0.9221  -14.5022    0.2594 H         1 <0>         0.0884
     49 H16        -1.0368  -15.7007   -1.9084 H         1 <0>         0.1144
     50 H17         0.7398  -15.6777   -2.0151 H         1 <0>         0.1143
     51 H18         1.4270  -19.2682    0.9951 H         1 <0>         0.1992
     52 H19        -1.2666  -19.3108    1.1454 H         1 <0>         0.1992
     53 H20        -0.0770   -5.9230    1.4360 H         1 <0>         0.0686
     54 H21        -1.2573   -8.7226    1.7288 H         1 <0>         0.0568
     55 H22        -1.2030   -7.4806    3.0026 H         1 <0>         0.0687
     56 H23        -2.1892   -7.2174    1.5444 H         1 <0>         0.0621
     57 H24         2.0805   -7.1356    1.2829 H         1 <0>         0.0621
     58 H25         1.2903   -7.4329    2.8499 H         1 <0>         0.0685
     59 H26         1.2361   -8.6749    1.5761 H         1 <0>         0.0567
@<TRIPOS>BOND
     1    1    2 1
     2    1   34 1
     3    1   35 1
     4    1   36 1
     5    2    7 ar
     6    2    3 ar
     7    3    4 ar
     8    3   37 1
     9    4    5 ar
    10    4   38 1
    11    5    6 ar
    12    5    9 1
    13    6    7 ar
    14    6   39 1
    15    7    8 1
    16    8   40 1
    17    9   10 1
    18    9   41 1
    19   10   18 2
    20   10   11 1
    21   11   15 1
    22   11   12 2
    23   12   13 1
    24   12   31 1
    25   13   14 2
    26   13   19 1
    27   14   15 1
    28   14   42 1
    29   15   16 1
    30   16   17 2
    31   17   18 1
    32   17   43 1
    33   19   20 am
    34   19   44 1
    35   20   21 2
    36   20   22 1
    37   22   23 1
    38   23   24 1
    39   23   45 1
    40   23   46 1
    41   24   25 1
    42   24   47 1
    43   24   48 1
    44   25   26 1
    45   25   49 1
    46   25   50 1
    47   26   30 1
    48   26   27 1
    49   27   28 2
    50   28   29 1
    51   28   51 1
    52   29   30 2
    53   29   52 1
    54   31   32 1
    55   31   33 1
    56   31   53 1
    57   32   54 1
    58   32   55 1
    59   32   56 1
    60   33   57 1
    61   33   58 1
    62   33   59 1
