@<TRIPOS>MOLECULE
CHEMBL245377
   68    73     0     0     0
SMALL
USER_CHARGES

@<TRIPOS>ATOM
      1 C1          2.4714    0.2418   -1.4362 C.3       1 <0>        -0.0458
      2 N1          1.8711   -1.0651   -1.1368 N.4       1 <0>        -0.3892
      3 C2          0.4398   -0.8931   -0.8549 C.3       1 <0>        -0.0014
      4 C3         -0.1899   -2.2565   -0.5614 C.3       1 <0>         0.0261
      5 N2          0.4846   -2.8661    0.5933 N.3       1 <0>        -0.5228
      6 C4          1.9231   -3.0217    0.3352 C.3       1 <0>         0.0180
      7 C5          2.5355   -1.6520    0.0343 C.3       1 <0>         0.0002
      8 C6         -0.1299   -4.1539    0.9425 C.3       1 <0>         0.0361
      9 C7          0.4165   -4.6293    2.2640 C.2       1 <0>         0.5147
     10 O1          1.2372   -3.9612    2.8566 O.2       1 <0>        -0.5053
     11 N3         -0.0067   -5.7970    2.7874 N.am      1 <0>        -0.6655
     12 C8          0.5680   -6.2844    3.9666 C.ar      1 <0>         0.1530
     13 C9          0.9772   -5.4005    4.9583 C.ar      1 <0>        -0.1040
     14 C10         1.5445   -5.8822    6.1225 C.ar      1 <0>        -0.1018
     15 C11         1.7081   -7.2400    6.3078 C.ar      1 <0>        -0.0899
     16 C12         1.3000   -8.1363    5.3181 C.ar      1 <0>         0.0025
     17 C13         0.7245   -7.6487    4.1496 C.ar      1 <0>        -0.1003
     18 C14         0.3796   -8.8309    3.2773 C.3       1 <0>         0.0099
     19 C15         0.8016  -10.0572    4.0478 C.2       1 <0>        -0.2361
     20 C16         1.3583   -9.6193    5.2608 C.2       1 <0>         0.0943
     21 N4          1.7362  -10.6837    5.9432 N.2       1 <0>        -0.2468
     22 N5          1.4489  -11.8239    5.1831 N.pl3     1 <0>        -0.4574
     23 H1          1.6227  -12.7419    5.4437 H         1 <0>         0.4476
     24 C17         0.8603  -11.4176    4.0219 C.2       1 <0>         0.1718
     25 C18         0.3943  -12.2935    2.9232 C.2       1 <0>        -0.0723
     26 C19        -0.3571  -13.4285    3.1924 C.2       1 <0>        -0.1185
     27 C20        -0.7664  -14.2089    2.1457 C.2       1 <0>        -0.0448
     28 S1         -0.0879  -13.3421    0.7408 S.3       1 <0>         0.1214
     29 C21         0.6913  -11.9973    1.6183 C.2       1 <0>        -0.1402
     30 C22        -1.5403  -15.4135    2.1710 C.1       1 <0>        -0.0802
     31 C23        -2.1748  -16.4011    2.1917 C.1       1 <0>        -0.1162
     32 C24        -2.9704  -17.6393    2.2177 C.3       1 <0>         0.1752
     33 O2         -3.1581  -18.1130    0.8826 O.3       1 <0>        -0.3107
     34 C25        -3.8771  -19.2559    0.7289 C.ar      1 <0>         0.1254
     35 C26        -4.3962  -19.9050    1.8397 C.ar      1 <0>        -0.2095
     36 C27        -5.1270  -21.0664    1.6807 C.ar      1 <0>        -0.0789
     37 C28        -5.3410  -21.5823    0.4159 C.ar      1 <0>        -0.1539
     38 C29        -4.8243  -20.9375   -0.6928 C.ar      1 <0>        -0.0789
     39 C30        -4.0980  -19.7725   -0.5396 C.ar      1 <0>        -0.1485
     40 H2          3.5333    0.1142   -1.6467 H         1 <0>         0.1243
     41 H3          1.9785    0.6775   -2.3053 H         1 <0>         0.1241
     42 H4          2.3479    0.9034   -0.5788 H         1 <0>         0.1236
     43 H5          0.3157   -0.2417    0.0102 H         1 <0>         0.1391
     44 H6         -0.0496   -0.4454   -1.7199 H         1 <0>         0.1375
     45 H7         -1.2488   -2.1274   -0.3376 H         1 <0>         0.1259
     46 H8         -0.0780   -2.9037   -1.4314 H         1 <0>         0.0631
     47 H9          2.4058   -3.4510    1.2133 H         1 <0>         0.1400
     48 H10         2.0699   -3.6815   -0.5199 H         1 <0>         0.0577
     49 H11         3.5997   -1.7670   -0.1714 H         1 <0>         0.1362
     50 H12         2.4005   -0.9968    0.8949 H         1 <0>         0.1400
     51 H13        -1.2104   -4.0320    1.0188 H         1 <0>         0.1221
     52 H14         0.0993   -4.8873    0.1695 H         1 <0>         0.0812
     53 H15        -0.7096   -6.2996    2.3466 H         1 <0>         0.4133
     54 H16         0.8520   -4.3369    4.8187 H         1 <0>         0.1456
     55 H17         1.8617   -5.1929    6.8910 H         1 <0>         0.1358
     56 H18         2.1529   -7.6098    7.2198 H         1 <0>         0.1319
     57 H19        -0.6937   -8.8574    3.0889 H         1 <0>         0.0923
     58 H20         0.9250   -8.7737    2.3354 H         1 <0>         0.0896
     59 H21        -0.6136  -13.6910    4.2081 H         1 <0>         0.1424
     60 H22         1.2539  -11.1646    1.2226 H         1 <0>         0.1960
     61 H23        -2.4460  -18.3959    2.8013 H         1 <0>         0.0967
     62 H24        -3.9407  -17.4382    2.6717 H         1 <0>         0.0966
     63 H25        -4.2287  -19.5028    2.8279 H         1 <0>         0.1292
     64 H26        -5.5314  -21.5721    2.5451 H         1 <0>         0.1276
     65 H27        -5.9124  -22.4906    0.2937 H         1 <0>         0.1265
     66 H28        -4.9925  -21.3427   -1.6797 H         1 <0>         0.1319
     67 H29        -3.6984  -19.2668   -1.4062 H         1 <0>         0.1313
     68 H30         1.9859   -1.6775   -1.9304 H         1 <0>         0.4215
@<TRIPOS>BOND
     1    1    2 1
     2    1   40 1
     3    1   41 1
     4    1   42 1
     5    2    7 1
     6    2    3 1
     7    2   68 1
     8    3    4 1
     9    3   43 1
    10    3   44 1
    11    4    5 1
    12    4   45 1
    13    4   46 1
    14    5    6 1
    15    5    8 1
    16    6    7 1
    17    6   47 1
    18    6   48 1
    19    7   49 1
    20    7   50 1
    21    8    9 1
    22    8   51 1
    23    8   52 1
    24    9   10 2
    25    9   11 am
    26   11   12 1
    27   11   53 1
    28   12   17 ar
    29   12   13 ar
    30   13   14 ar
    31   13   54 1
    32   14   15 ar
    33   14   55 1
    34   15   16 ar
    35   15   56 1
    36   16   20 1
    37   16   17 ar
    38   17   18 1
    39   18   19 1
    40   18   57 1
    41   18   58 1
    42   19   24 2
    43   19   20 1
    44   20   21 2
    45   21   22 1
    46   22   23 1
    47   22   24 1
    48   24   25 1
    49   25   29 2
    50   25   26 1
    51   26   27 2
    52   26   59 1
    53   27   28 1
    54   27   30 1
    55   28   29 1
    56   29   60 1
    57   30   31 3
    58   31   32 1
    59   32   33 1
    60   32   61 1
    61   32   62 1
    62   33   34 1
    63   34   39 ar
    64   34   35 ar
    65   35   36 ar
    66   35   63 1
    67   36   37 ar
    68   36   64 1
    69   37   38 ar
    70   37   65 1
    71   38   39 ar
    72   38   66 1
    73   39   67 1
