@<TRIPOS>MOLECULE
CHEMBL224547
   61    66     0     0     0
SMALL
USER_CHARGES

@<TRIPOS>ATOM
      1 C1         -0.0381    1.4645   -0.0016 C.3       1 <0>        -0.0472
      2 N1         -0.0078   -0.0042   -0.0037 N.4       1 <0>        -0.3842
      3 C2         -1.3824   -0.5204   -0.0142 C.3       1 <0>        -0.0233
      4 C3         -1.3525   -2.0478   -0.1320 C.3       1 <0>         0.0979
      5 N2         -0.5114   -2.5826    0.9500 N.pl3     1 <0>        -0.6420
      6 C4          0.8285   -2.0045    1.1366 C.3       1 <0>         0.0976
      7 C5          0.6956   -0.4792    1.1946 C.3       1 <0>        -0.0230
      8 C6         -0.9716   -3.6089    1.7762 C.ar      1 <0>         0.2125
      9 C7         -2.2802   -4.0641    1.6572 C.ar      1 <0>        -0.1851
     10 C8         -2.7393   -5.0763    2.4706 C.ar      1 <0>        -0.0435
     11 C9         -1.8888   -5.6503    3.4204 C.ar      1 <0>        -0.0723
     12 C10        -0.5774   -5.1885    3.5333 C.ar      1 <0>        -0.0211
     13 C11        -0.1200   -4.1811    2.7155 C.ar      1 <0>        -0.1671
     14 C12         0.0798   -5.9916    4.6291 C.3       1 <0>        -0.0098
     15 C13        -0.9764   -6.9486    5.1261 C.2       1 <0>        -0.2288
     16 C14        -2.1124   -6.7300    4.4068 C.2       1 <0>         0.1054
     17 N3         -3.0589   -7.6023    4.8670 N.pl3     1 <0>        -0.4545
     18 H1         -3.9698   -7.6786    4.5426 H         1 <0>         0.4421
     19 N4         -2.4823   -8.3666    5.8885 N.2       1 <0>        -0.2540
     20 C15        -1.2347   -7.9772    6.0461 C.2       1 <0>         0.1625
     21 C16        -0.2672   -8.5309    7.0272 C.2       1 <0>        -0.0530
     22 C17        -0.6924   -8.9561    8.2760 C.2       1 <0>        -0.1002
     23 C18         0.2337   -9.4602    9.1490 C.2       1 <0>        -0.0563
     24 S1          1.7440   -9.3401    8.2054 S.3       1 <0>         0.1151
     25 C19         1.0609   -8.6366    6.7140 C.2       1 <0>        -0.1443
     26 C20         0.0405   -9.9560   10.4785 C.1       1 <0>        -0.0721
     27 C21        -0.1179  -10.3625   11.5684 C.1       1 <0>        -0.1276
     28 C22        -0.3165  -10.8721   12.9350 C.3       1 <0>         0.1774
     29 O1          0.9377  -11.2981   13.4715 O.3       1 <0>        -0.3105
     30 C23         0.9301  -11.7991   14.7348 C.ar      1 <0>         0.1266
     31 C24        -0.2607  -11.8843   15.4413 C.ar      1 <0>        -0.2101
     32 C25        -0.2658  -12.3944   16.7252 C.ar      1 <0>        -0.0793
     33 C26         0.9147  -12.8193   17.3061 C.ar      1 <0>        -0.1550
     34 C27         2.1030  -12.7350   16.6042 C.ar      1 <0>        -0.0790
     35 C28         2.1124  -12.2314   15.3178 C.ar      1 <0>        -0.1489
     36 H2          0.9818    1.8490   -0.0019 H         1 <0>         0.1257
     37 H3         -0.5601    1.8184   -0.8907 H         1 <0>         0.1254
     38 H4         -0.5587    1.8159    0.8893 H         1 <0>         0.1218
     39 H5         -1.8841   -0.2370    0.9110 H         1 <0>         0.1329
     40 H6         -1.9217   -0.1008   -0.8635 H         1 <0>         0.1418
     41 H7         -2.3643   -2.4423   -0.0384 H         1 <0>         0.1278
     42 H8         -0.9330   -2.3326   -1.0969 H         1 <0>         0.0902
     43 H9          1.2586   -2.3704    2.0690 H         1 <0>         0.1283
     44 H10         1.4682   -2.2850    0.2999 H         1 <0>         0.0901
     45 H11         1.6875   -0.0292    1.2360 H         1 <0>         0.1422
     46 H12         0.1310   -0.1970    2.0832 H         1 <0>         0.1330
     47 H13        -2.9391   -3.6219    0.9245 H         1 <0>         0.1294
     48 H14        -3.7565   -5.4265    2.3750 H         1 <0>         0.1293
     49 H15         0.8979   -3.8316    2.8059 H         1 <0>         0.1314
     50 H16         0.9311   -6.5442    4.2318 H         1 <0>         0.1023
     51 H17         0.4012   -5.3337    5.4366 H         1 <0>         0.1035
     52 H18        -1.7337   -8.8906    8.5550 H         1 <0>         0.1447
     53 H19         1.5663   -8.3630    5.7996 H         1 <0>         0.1947
     54 H20        -0.7297  -10.0814   13.5612 H         1 <0>         0.0957
     55 H21        -1.0068  -11.7153   12.9116 H         1 <0>         0.0950
     56 H22        -1.1830  -11.5519   14.9882 H         1 <0>         0.1291
     57 H23        -1.1926  -12.4610   17.2756 H         1 <0>         0.1270
     58 H24         0.9087  -13.2174   18.3101 H         1 <0>         0.1259
     59 H25         3.0238  -13.0672   17.0603 H         1 <0>         0.1315
     60 H26         3.0401  -12.1698   14.7683 H         1 <0>         0.1316
     61 H27         0.4768   -0.3282   -0.8272 H         1 <0>         0.4251
@<TRIPOS>BOND
     1    1    2 1
     2    1   36 1
     3    1   37 1
     4    1   38 1
     5    2    7 1
     6    2    3 1
     7    2   61 1
     8    3    4 1
     9    3   39 1
    10    3   40 1
    11    4    5 1
    12    4   41 1
    13    4   42 1
    14    5    6 1
    15    5    8 1
    16    6    7 1
    17    6   43 1
    18    6   44 1
    19    7   45 1
    20    7   46 1
    21    8   13 ar
    22    8    9 ar
    23    9   10 ar
    24    9   47 1
    25   10   11 ar
    26   10   48 1
    27   11   16 1
    28   11   12 ar
    29   12   13 ar
    30   12   14 1
    31   13   49 1
    32   14   15 1
    33   14   50 1
    34   14   51 1
    35   15   20 1
    36   15   16 2
    37   16   17 1
    38   17   18 1
    39   17   19 1
    40   19   20 2
    41   20   21 1
    42   21   25 2
    43   21   22 1
    44   22   23 2
    45   22   52 1
    46   23   24 1
    47   23   26 1
    48   24   25 1
    49   25   53 1
    50   26   27 3
    51   27   28 1
    52   28   29 1
    53   28   54 1
    54   28   55 1
    55   29   30 1
    56   30   35 ar
    57   30   31 ar
    58   31   32 ar
    59   31   56 1
    60   32   33 ar
    61   32   57 1
    62   33   34 ar
    63   33   58 1
    64   34   35 ar
    65   34   59 1
    66   35   60 1
