@<TRIPOS>MOLECULE
CHEMBL205893
   50    54     0     0     0
SMALL
USER_CHARGES

@<TRIPOS>ATOM
      1 C1         -0.0535    1.5101    0.0601 C.3       1 <0>        -0.0469
      2 N1         -0.0301    0.0414    0.0494 N.4       1 <0>        -0.3837
      3 C2         -1.4072   -0.4682    0.0478 C.3       1 <0>        -0.0238
      4 C3         -1.3856   -1.9951   -0.0789 C.3       1 <0>         0.1006
      5 N2         -0.5378   -2.5400    0.9927 N.pl3     1 <0>        -0.6428
      6 C4          0.8063   -1.9694    1.1712 C.3       1 <0>         0.0994
      7 C5          0.6812   -0.4437    1.2389 C.3       1 <0>        -0.0227
      8 C6         -0.9968   -3.5709    1.8187 C.ar      1 <0>         0.2074
      9 C7         -2.3135   -4.0139    1.7085 C.ar      1 <0>        -0.1818
     10 C8         -2.7774   -5.0194    2.5074 C.ar      1 <0>        -0.0222
     11 C9         -1.9285   -5.6146    3.4464 C.ar      1 <0>         0.0304
     12 C10        -0.5995   -5.1701    3.5596 C.ar      1 <0>         0.0895
     13 C11        -0.1388   -4.1511    2.7390 C.ar      1 <0>        -0.1811
     14 N3         -0.0189   -5.9347    4.5550 N.pl3     1 <0>        -0.5821
     15 C12        -0.9787   -6.8015    5.0117 C.2       1 <0>         0.3924
     16 N4         -2.0987   -6.6076    4.3554 N.2       1 <0>        -0.5251
     17 C13        -0.7820   -7.7995    6.0770 C.2       1 <0>        -0.2906
     18 C14        -1.7920   -8.7149    6.3763 C.2       1 <0>         0.3670
     19 C15        -1.5435   -9.6876    7.4468 C.ar      1 <0>        -0.1106
     20 C16        -2.4962  -10.6422    7.8155 C.ar      1 <0>        -0.1006
     21 C17        -2.1871  -11.5220    8.8313 C.ar      1 <0>         0.0699
     22 N5         -1.0201  -11.4715    9.4483 N.ar      1 <0>        -0.4306
     23 C18        -0.0909  -10.5922    9.1382 C.ar      1 <0>         0.0825
     24 C19        -0.3115   -9.6636    8.1255 C.ar      1 <0>         0.1585
     25 N6          0.6462   -8.7328    7.7816 N.am      1 <0>        -0.6283
     26 C20         0.4358   -7.8395    6.7997 C.2       1 <0>         0.5806
     27 O1          1.3136   -7.0393    6.5276 O.2       1 <0>        -0.5588
     28 N7         -2.9825   -8.7056    5.6901 N.pl3     1 <0>        -0.7970
     29 H1          0.9683    1.8898    0.0532 H         1 <0>         0.1247
     30 H2         -0.5813    1.8715   -0.8225 H         1 <0>         0.1250
     31 H3         -0.5647    1.8589    0.9573 H         1 <0>         0.1214
     32 H4         -1.8997   -0.1877    0.9788 H         1 <0>         0.1327
     33 H5         -1.9517   -0.0413   -0.7945 H         1 <0>         0.1409
     34 H6         -2.3984   -2.3853    0.0211 H         1 <0>         0.1284
     35 H7         -0.9757   -2.2764   -1.0490 H         1 <0>         0.0878
     36 H8          1.2426   -2.3425    2.0977 H         1 <0>         0.1253
     37 H9          1.4375   -2.2480    0.3274 H         1 <0>         0.0875
     38 H10         1.6756    0.0013    1.2743 H         1 <0>         0.1403
     39 H11         0.1255   -0.1640    2.1339 H         1 <0>         0.1325
     40 H12        -2.9729   -3.5577    0.9851 H         1 <0>         0.1296
     41 H13        -3.7998   -5.3549    2.4145 H         1 <0>         0.1353
     42 H14         0.8824   -3.8090    2.8198 H         1 <0>         0.1231
     43 H15        -3.4527  -10.6893    7.3162 H         1 <0>         0.1483
     44 H16        -2.9122  -12.2654    9.1279 H         1 <0>         0.1710
     45 H17         0.8477  -10.5915    9.6725 H         1 <0>         0.1742
     46 H18        -3.1011   -8.1115    4.9326 H         1 <0>         0.4328
     47 H19        -3.7044   -9.2931    5.9633 H         1 <0>         0.4050
     48 H20         1.4921   -8.7253    8.2562 H         1 <0>         0.4236
     49 H21         0.4459   -0.2802   -0.7801 H         1 <0>         0.4247
     50 H22         0.8960   -5.8703    4.8706 H         1 <0>         0.4363
@<TRIPOS>BOND
     1    1    2 1
     2    1   29 1
     3    1   30 1
     4    1   31 1
     5    2    7 1
     6    2    3 1
     7    2   49 1
     8    3    4 1
     9    3   32 1
    10    3   33 1
    11    4    5 1
    12    4   34 1
    13    4   35 1
    14    5    6 1
    15    5    8 1
    16    6    7 1
    17    6   36 1
    18    6   37 1
    19    7   38 1
    20    7   39 1
    21    8   13 ar
    22    8    9 ar
    23    9   10 ar
    24    9   40 1
    25   10   11 ar
    26   10   41 1
    27   11   16 1
    28   11   12 ar
    29   12   13 ar
    30   12   14 1
    31   13   42 1
    32   14   15 1
    33   14   50 1
    34   15   16 2
    35   15   17 1
    36   17   26 1
    37   17   18 2
    38   18   19 1
    39   18   28 1
    40   19   24 ar
    41   19   20 ar
    42   20   21 ar
    43   20   43 1
    44   21   22 ar
    45   21   44 1
    46   22   23 ar
    47   23   24 ar
    48   23   45 1
    49   24   25 1
    50   25   26 am
    51   25   48 1
    52   26   27 2
    53   28   46 1
    54   28   47 1
