@<TRIPOS>MOLECULE
CHEMBL214063
   77    83     0     0     0
SMALL
USER_CHARGES

@<TRIPOS>ATOM
      1 C1         -1.6631    1.2033    0.0043 C.3       1 <0>        -0.1158
      2 C2         -1.0082   -0.1539    0.0011 C.ar      1 <0>        -0.0654
      3 C3         -0.5703   -0.7068   -1.1886 C.ar      1 <0>        -0.1373
      4 C4          0.0311   -1.9517   -1.1958 C.ar      1 <0>        -0.0973
      5 C5          0.1963   -2.6474   -0.0139 C.ar      1 <0>        -0.1338
      6 C6         -0.2422   -2.0951    1.1822 C.ar      1 <0>         0.1623
      7 C7         -0.8408   -0.8418    1.1867 C.ar      1 <0>        -0.1501
      8 N1         -0.0763   -2.7973    2.3813 N.am      1 <0>        -0.6799
      9 C8         -0.0957   -4.1449    2.3812 C.2       1 <0>         0.7139
     10 O1         -0.0920   -4.7530    1.3283 O.2       1 <0>        -0.5609
     11 N2         -0.1191   -4.8186    3.5483 N.am      1 <0>        -0.5927
     12 C9         -0.0304   -6.2809    3.5520 C.3       1 <0>         0.2086
     13 C10         1.4160   -6.6962    3.6313 C.2       1 <0>        -0.1579
     14 C11         2.1756   -6.9377    4.7308 C.2       1 <0>        -0.1444
     15 C12         3.4915   -7.3104    4.5691 C.2       1 <0>        -0.1259
     16 C13         3.9916   -7.4253    3.2977 C.2       1 <0>        -0.1304
     17 S1          2.5692   -7.0048    2.3040 S.3       1 <0>         0.1393
     18 C14         5.3484   -7.8032    2.8641 C.2       1 <0>         0.1959
     19 C15         5.6632   -8.6801    1.8669 C.2       1 <0>        -0.2239
     20 C16         7.0620   -8.7546    1.7771 C.2       1 <0>         0.0874
     21 N3          7.5733   -7.9491    2.6895 N.2       1 <0>        -0.2439
     22 H1          6.6122   -6.6938    4.1036 H         1 <0>         0.4484
     23 N4          6.5223   -7.3359    3.3821 N.pl3     1 <0>        -0.4527
     24 C17         7.4327   -9.7046    0.6974 C.ar      1 <0>        -0.0056
     25 C18         8.6805  -10.1160    0.2257 C.ar      1 <0>        -0.0823
     26 C19         8.7606  -11.0261   -0.8076 C.ar      1 <0>        -0.1194
     27 C20         7.6079  -11.5334   -1.3800 C.ar      1 <0>        -0.0830
     28 C21         6.3682  -11.1301   -0.9175 C.ar      1 <0>        -0.0758
     29 C22         6.2786  -10.2206    0.1159 C.ar      1 <0>        -0.0665
     30 C23         5.0941   -9.6047    0.8195 C.3       1 <0>        -0.0035
     31 C24         7.7030  -12.5267   -2.5093 C.3       1 <0>         0.0989
     32 N5          7.7373  -13.8893   -1.9615 N.3       1 <0>        -0.5343
     33 C25         8.9712  -14.1184   -1.1965 C.3       1 <0>         0.0186
     34 C26         8.9408  -15.5250   -0.5945 C.3       1 <0>        -0.0024
     35 N6          8.8209  -16.5163   -1.6717 N.4       1 <0>        -0.3884
     36 C27         7.5720  -16.2899   -2.4111 C.3       1 <0>        -0.0023
     37 C28         7.5910  -14.8897   -3.0282 C.3       1 <0>         0.0248
     38 C29         8.8099  -17.8672   -1.0947 C.3       1 <0>        -0.0458
     39 C30        -0.2332   -4.0885    4.8133 C.3       1 <0>         0.0587
     40 C31        -0.2427   -4.9094    6.1044 C.3       1 <0>        -0.1766
     41 C32        -1.5309   -4.2500    5.6076 C.3       1 <0>        -0.1846
     42 H2         -0.9024    1.9735    0.1325 H         1 <0>         0.0721
     43 H3         -2.1817    1.3587   -0.9417 H         1 <0>         0.0690
     44 H4         -2.3787    1.2595    0.8246 H         1 <0>         0.0664
     45 H5         -0.6986   -0.1650   -2.1140 H         1 <0>         0.1226
     46 H6          0.3716   -2.3809   -2.1265 H         1 <0>         0.1248
     47 H7          0.6658   -3.6200   -0.0201 H         1 <0>         0.1488
     48 H8         -1.1786   -0.4075    2.1160 H         1 <0>         0.1232
     49 H9          0.0526   -2.3141    3.2124 H         1 <0>         0.4067
     50 H10        -0.5695   -6.6754    4.4133 H         1 <0>         0.1079
     51 H11        -0.4716   -6.6739    2.6360 H         1 <0>         0.1082
     52 H12         1.7531   -6.8383    5.7197 H         1 <0>         0.1392
     53 H13         4.1173   -7.5078    5.4269 H         1 <0>         0.1345
     54 H14         9.5827   -9.7216    0.6694 H         1 <0>         0.1301
     55 H15         9.7267  -11.3434   -1.1715 H         1 <0>         0.1246
     56 H16         5.4696  -11.5275   -1.3658 H         1 <0>         0.1316
     57 H17         4.4929  -10.3816    1.2919 H         1 <0>         0.0986
     58 H18         4.4885   -9.0404    0.1103 H         1 <0>         0.0991
     59 H19         6.8364  -12.4191   -3.1617 H         1 <0>         0.0994
     60 H20         8.6128  -12.3416   -3.0804 H         1 <0>         0.0583
     61 H21         9.8321  -14.0247   -1.8584 H         1 <0>         0.0612
     62 H22         9.0452  -13.3819   -0.3964 H         1 <0>         0.1277
     63 H23         9.8614  -15.7022   -0.0386 H         1 <0>         0.1352
     64 H24         8.0875  -15.6140    0.0778 H         1 <0>         0.1376
     65 H25         7.4779  -17.0342   -3.2018 H         1 <0>         0.1358
     66 H26         6.7257  -16.3750   -1.7294 H         1 <0>         0.1377
     67 H27         6.6581  -14.7159   -3.5644 H         1 <0>         0.1249
     68 H28         8.4292  -14.8086   -3.7202 H         1 <0>         0.0613
     69 H29         7.9635  -17.9650   -0.4148 H         1 <0>         0.1230
     70 H30         8.7209  -18.6030   -1.8939 H         1 <0>         0.1241
     71 H31         9.7371  -18.0359   -0.5471 H         1 <0>         0.1238
     72 H32         0.2550   -3.1143    4.8396 H         1 <0>         0.1246
     73 H33        -0.1641   -5.9927    6.0126 H         1 <0>         0.1038
     74 H34         0.2394   -4.4754    6.9803 H         1 <0>         0.1088
     75 H35        -1.8962   -3.3822    6.1567 H         1 <0>         0.1072
     76 H36        -2.2997   -4.8995    5.1890 H         1 <0>         0.1018
     77 H37         9.6048  -16.4260   -2.3005 H         1 <0>         0.4222
@<TRIPOS>BOND
     1    1    2 1
     2    1   42 1
     3    1   43 1
     4    1   44 1
     5    2    7 ar
     6    2    3 ar
     7    3    4 ar
     8    3   45 1
     9    4    5 ar
    10    4   46 1
    11    5    6 ar
    12    5   47 1
    13    6    7 ar
    14    6    8 1
    15    7   48 1
    16    8    9 am
    17    8   49 1
    18    9   10 2
    19    9   11 am
    20   11   12 1
    21   11   39 1
    22   12   13 1
    23   12   50 1
    24   12   51 1
    25   13   17 1
    26   13   14 2
    27   14   15 1
    28   14   52 1
    29   15   16 2
    30   15   53 1
    31   16   17 1
    32   16   18 1
    33   18   19 2
    34   18   23 1
    35   19   20 1
    36   19   30 1
    37   20   21 2
    38   20   24 1
    39   21   23 1
    40   22   23 1
    41   24   29 ar
    42   24   25 ar
    43   25   26 ar
    44   25   54 1
    45   26   27 ar
    46   26   55 1
    47   27   28 ar
    48   27   31 1
    49   28   29 ar
    50   28   56 1
    51   29   30 1
    52   30   57 1
    53   30   58 1
    54   31   32 1
    55   31   59 1
    56   31   60 1
    57   32   37 1
    58   32   33 1
    59   33   34 1
    60   33   61 1
    61   33   62 1
    62   34   35 1
    63   34   63 1
    64   34   64 1
    65   35   36 1
    66   35   38 1
    67   35   77 1
    68   36   37 1
    69   36   65 1
    70   36   66 1
    71   37   67 1
    72   37   68 1
    73   38   69 1
    74   38   70 1
    75   38   71 1
    76   39   41 1
    77   39   40 1
    78   39   72 1
    79   40   41 1
    80   40   73 1
    81   40   74 1
    82   41   75 1
    83   41   76 1
