@<TRIPOS>MOLECULE
ZINC38688705
   60    64     0     0     0
SMALL
USER_CHARGES

@<TRIPOS>ATOM
      1 C1         -0.4628    1.4038   -0.2771 C.3       1 <0>        -0.1520
      2 C2         -0.3558   -0.1212   -0.2168 C.3       1 <0>         0.0532
      3 O1          0.4029   -0.5004    0.9332 O.3       1 <0>        -0.3051
      4 C3          0.5931   -1.8316    1.1360 C.ar      1 <0>         0.1040
      5 C4          0.0661   -2.7521    0.2443 C.ar      1 <0>        -0.1703
      6 C5          0.2608   -4.1049    0.4516 C.ar      1 <0>        -0.0958
      7 C6          0.9805   -4.5429    1.5478 C.ar      1 <0>        -0.0750
      8 C7          1.5086   -3.6299    2.4414 C.ar      1 <0>        -0.1628
      9 C8          1.3224   -2.2722    2.2362 C.ar      1 <0>         0.1011
     10 O2          1.8464   -1.3725    3.1111 O.3       1 <0>        -0.3056
     11 C9          2.5833   -1.8969    4.2174 C.3       1 <0>         0.0255
     12 C10         1.1893   -6.0188    1.7692 C.3       1 <0>         0.0888
     13 H1          1.7751   -6.1685    2.6762 H         1 <0>         0.1006
     14 C11         1.9314   -6.5993    0.5947 C.ar      1 <0>        -0.1153
     15 C12         3.2931   -6.3839    0.4761 C.ar      1 <0>        -0.0585
     16 C13         3.9900   -6.9083   -0.5943 C.ar      1 <0>        -0.1305
     17 C14         3.3244   -7.6553   -1.5564 C.ar      1 <0>         0.1188
     18 C15         1.9612   -7.8729   -1.4405 C.ar      1 <0>        -0.1179
     19 C16         1.2616   -7.3440   -0.3635 C.ar      1 <0>         0.1328
     20 O3         -0.0724   -7.5659   -0.2647 O.3       1 <0>        -0.2418
     21 C17        -0.6909   -7.4148    0.9183 C.2       1 <0>         0.4420
     22 C18        -0.1451   -6.6931    1.9215 C.2       1 <0>        -0.2761
     23 C19        -0.8564   -6.5699    3.1583 C.1       1 <0>         0.2728
     24 N1         -1.4206   -6.4723    4.1394 N.1       1 <0>        -0.4437
     25 N2         -1.9128   -8.0095    1.1117 N.pl3     1 <0>        -0.8298
     26 O4          4.0089   -8.1720   -2.6108 O.3       1 <0>        -0.2711
     27 C20         4.8814   -9.1712   -2.3705 C.2       1 <0>         0.5328
     28 O5          4.9611   -9.6541   -1.2578 O.2       1 <0>        -0.4806
     29 C21         5.7372   -9.6770   -3.4548 C.2       1 <0>        -0.2652
     30 C22         6.6415  -10.7093   -3.2393 C.2       1 <0>         0.1006
     31 C23         7.4547  -11.1216   -4.3259 C.ar      1 <0>        -0.1790
     32 C24         8.2378  -12.2812   -4.2290 C.ar      1 <0>        -0.0350
     33 C25         8.9829  -12.6878   -5.2983 C.ar      1 <0>        -0.1449
     34 C26         8.9791  -11.9588   -6.4797 C.ar      1 <0>        -0.0417
     35 C27         8.2316  -10.8046   -6.5908 C.ar      1 <0>        -0.1391
     36 C28         7.4715  -10.3677   -5.5142 C.ar      1 <0>         0.1615
     37 O6          6.7676   -9.2131   -5.5963 O.3       1 <0>        -0.2697
     38 C29         5.6648   -9.1127   -4.8152 C.2       1 <0>         0.5241
     39 O7          4.6517   -8.5734   -5.2193 O.2       1 <0>        -0.4087
     40 H2          0.5358    1.8359   -0.3420 H         1 <0>         0.0667
     41 H3         -1.0415    1.6931   -1.1543 H         1 <0>         0.0783
     42 H4         -0.9590    1.7691    0.6221 H         1 <0>         0.0664
     43 H5         -1.3544   -0.5532   -0.1519 H         1 <0>         0.0607
     44 H6          0.1404   -0.4865   -1.1160 H         1 <0>         0.0616
     45 H7         -0.4971   -2.4126   -0.6124 H         1 <0>         0.1347
     46 H8         -0.1505   -4.8213   -0.2441 H         1 <0>         0.1210
     47 H9          2.0701   -3.9746    3.2972 H         1 <0>         0.1354
     48 H10         1.9362   -2.5413    4.8124 H         1 <0>         0.0544
     49 H11         3.4309   -2.4744    3.8483 H         1 <0>         0.0552
     50 H12         2.9451   -1.0751    4.8353 H         1 <0>         0.1007
     51 H13         3.8128   -5.8029    1.2236 H         1 <0>         0.1433
     52 H14         5.0526   -6.7371   -0.6831 H         1 <0>         0.1371
     53 H15         1.4419   -8.4535   -2.1887 H         1 <0>         0.1496
     54 H16        -2.3171   -8.5297    0.3998 H         1 <0>         0.4121
     55 H17        -2.3719   -7.9096    1.9603 H         1 <0>         0.4261
     56 H18         6.7232  -11.1838   -2.2726 H         1 <0>         0.1699
     57 H19         8.2517  -12.8505   -3.3113 H         1 <0>         0.1460
     58 H20         9.5807  -13.5842   -5.2244 H         1 <0>         0.1414
     59 H21         9.5671  -12.2982   -7.3196 H         1 <0>         0.1458
     60 H22         8.2380  -10.2422   -7.5128 H         1 <0>         0.1500
@<TRIPOS>BOND
     1    1    2 1
     2    1   40 1
     3    1   41 1
     4    1   42 1
     5    2    3 1
     6    2   43 1
     7    2   44 1
     8    3    4 1
     9    4    9 ar
    10    4    5 ar
    11    5    6 ar
    12    5   45 1
    13    6    7 ar
    14    6   46 1
    15    7    8 ar
    16    7   12 1
    17    8    9 ar
    18    8   47 1
    19    9   10 1
    20   10   11 1
    21   11   48 1
    22   11   49 1
    23   11   50 1
    24   12   13 1
    25   12   22 1
    26   12   14 1
    27   14   19 ar
    28   14   15 ar
    29   15   16 ar
    30   15   51 1
    31   16   17 ar
    32   16   52 1
    33   17   18 ar
    34   17   26 1
    35   18   19 ar
    36   18   53 1
    37   19   20 1
    38   20   21 1
    39   21   22 2
    40   21   25 1
    41   22   23 1
    42   23   24 3
    43   25   54 1
    44   25   55 1
    45   26   27 1
    46   27   28 2
    47   27   29 1
    48   29   38 1
    49   29   30 2
    50   30   31 1
    51   30   56 1
    52   31   36 ar
    53   31   32 ar
    54   32   33 ar
    55   32   57 1
    56   33   34 ar
    57   33   58 1
    58   34   35 ar
    59   34   59 1
    60   35   36 ar
    61   35   60 1
    62   36   37 1
    63   37   38 1
    64   38   39 2
