@<TRIPOS>MOLECULE
ZINC44713817
   71    75     0     0     0
SMALL
USER_CHARGES

@<TRIPOS>ATOM
      1 C1         -3.6031    0.7653   -0.9047 C.3       1 <0>        -0.1090
      2 C2         -2.7986    2.0006   -1.2177 C.2       1 <0>         0.0995
      3 C3         -1.6758    2.0517   -1.9711 C.2       1 <0>        -0.2533
      4 C4         -1.2454    3.3820   -2.0125 C.2       1 <0>         0.0944
      5 N1         -2.0800    4.1035   -1.3091 N.2       1 <0>        -0.2827
      6 N2         -3.0722    3.2548   -0.8016 N.pl3     1 <0>        -0.4693
      7 H1         -3.8222    3.5213   -0.2471 H         1 <0>         0.4422
      8 C5         -0.0300    3.8953   -2.7407 C.3       1 <0>        -0.0819
      9 C6         -1.0069    0.8821   -2.6461 C.3       1 <0>         0.2248
     10 H2         -0.2805    1.2481   -3.3716 H         1 <0>         0.0997
     11 C7         -0.2933    0.0275   -1.5966 C.3       1 <0>        -0.1638
     12 N3         -2.0162    0.0714   -3.3319 N.am      1 <0>        -0.7218
     13 C8         -1.6629   -0.7008   -4.3784 C.2       1 <0>         0.5197
     14 O1         -0.5095   -0.7247   -4.7524 O.2       1 <0>        -0.5169
     15 C9         -2.7012   -1.5347   -5.0839 C.3       1 <0>        -0.1141
     16 H3         -3.4997   -1.8084   -4.3943 H         1 <0>         0.1108
     17 C10        -2.0544   -2.8013   -5.6879 C.3       1 <0>         0.1116
     18 N4         -2.7566   -3.0018   -6.9773 N.am      1 <0>        -0.6172
     19 C11        -2.9292   -1.6329   -7.5198 C.3       1 <0>         0.1070
     20 C12        -3.2733   -0.7702   -6.2894 C.3       1 <0>        -0.0717
     21 C13        -2.6150    0.6011   -6.4064 C.3       1 <0>        -0.1478
     22 C14        -3.2414    1.3650   -7.5763 C.3       1 <0>        -0.0080
     23 N5         -4.6847    1.5105   -7.3515 N.4       1 <0>        -0.5051
     24 C15        -5.3242    0.1893   -7.3333 C.3       1 <0>        -0.0115
     25 C16        -4.7859   -0.6243   -6.1531 C.3       1 <0>        -0.1344
     26 C17        -3.1501   -4.1657   -7.5314 C.2       1 <0>         0.6257
     27 O2         -3.7204   -4.1656   -8.6056 O.2       1 <0>        -0.5108
     28 C18        -2.8894   -5.4376   -6.8362 C.2       1 <0>        -0.3017
     29 C19        -3.7122   -6.0609   -5.9447 C.2       1 <0>         0.1278
     30 O3         -3.1170   -7.1863   -5.5413 O.3       1 <0>        -0.0678
     31 N6         -1.8640   -7.3132   -6.1834 N.2       1 <0>        -0.2661
     32 C20        -1.6944   -6.2838   -6.9741 C.2       1 <0>         0.1749
     33 C21        -0.5200   -6.0195   -7.8402 C.ar      1 <0>        -0.0422
     34 C22        -0.4749   -4.8690   -8.6259 C.ar      1 <0>        -0.0741
     35 C23         0.6202   -4.6280   -9.4299 C.ar      1 <0>        -0.1157
     36 C24         1.6727   -5.5258   -9.4582 C.ar      1 <0>        -0.0783
     37 C25         1.6345   -6.6692   -8.6818 C.ar      1 <0>        -0.1101
     38 C26         0.5462   -6.9181   -7.8675 C.ar      1 <0>        -0.0055
     39 Cl1         0.5027   -8.3498   -6.8867 Cl        1 <0>        -0.0267
     40 C27        -5.0612   -5.5646   -5.4921 C.3       1 <0>        -0.0947
     41 H4         -4.3645    0.6236   -1.6717 H         1 <0>         0.0787
     42 H5         -2.9434   -0.1021   -0.8830 H         1 <0>         0.0929
     43 H6         -4.0833    0.8810    0.0669 H         1 <0>         0.0829
     44 H7         -0.3173    4.2267   -3.7385 H         1 <0>         0.0774
     45 H8          0.3975    4.7324   -2.1889 H         1 <0>         0.0802
     46 H9          0.7089    3.0980   -2.8213 H         1 <0>         0.0811
     47 H10        -1.0198   -0.3385   -0.8710 H         1 <0>         0.0582
     48 H11         0.1905   -0.8185   -2.0847 H         1 <0>         0.0658
     49 H12         0.4576    0.6306   -1.0863 H         1 <0>         0.0718
     50 H13        -2.9387    0.0905   -3.0327 H         1 <0>         0.3964
     51 H14        -0.9894   -2.6409   -5.8560 H         1 <0>         0.1042
     52 H15        -2.2116   -3.6579   -5.0323 H         1 <0>         0.0911
     53 H16        -2.0041   -1.2872   -7.9813 H         1 <0>         0.0894
     54 H17        -3.7467   -1.6095   -8.2404 H         1 <0>         0.0923
     55 H18        -2.7698    1.1590   -5.4829 H         1 <0>         0.0986
     56 H19        -1.5464    0.4778   -6.5828 H         1 <0>         0.1285
     57 H20        -2.7845    2.3517   -7.6520 H         1 <0>         0.1396
     58 H21        -3.0718    0.8147   -8.5018 H         1 <0>         0.1340
     59 H22        -4.8414    1.9707   -6.4674 H         1 <0>         0.4273
     60 H23        -6.4026    0.3093   -7.2298 H         1 <0>         0.1397
     61 H24        -5.1049   -0.3331   -8.2645 H         1 <0>         0.1350
     62 H25        -5.2479   -1.6116   -6.1508 H         1 <0>         0.1180
     63 H26        -5.0193   -0.1107   -5.2205 H         1 <0>         0.0961
     64 H27        -1.2959   -4.1676   -8.6056 H         1 <0>         0.1294
     65 H28         0.6557   -3.7368  -10.0389 H         1 <0>         0.1375
     66 H29         2.5275   -5.3327  -10.0895 H         1 <0>         0.1430
     67 H30         2.4586   -7.3667   -8.7084 H         1 <0>         0.1461
     68 H31        -5.8335   -5.9571   -6.1537 H         1 <0>         0.1064
     69 H32        -5.2496   -5.9026   -4.4731 H         1 <0>         0.0995
     70 H33        -5.0764   -4.4751   -5.5222 H         1 <0>         0.0886
     71 H34        -5.0849    2.0662   -8.0926 H         1 <0>         0.4346
@<TRIPOS>BOND
     1    1    2 1
     2    1   41 1
     3    1   42 1
     4    1   43 1
     5    2    6 1
     6    2    3 2
     7    3    4 1
     8    3    9 1
     9    4    5 2
    10    4    8 1
    11    5    6 1
    12    6    7 1
    13    8   44 1
    14    8   45 1
    15    8   46 1
    16    9   10 1
    17    9   11 1
    18    9   12 1
    19   11   47 1
    20   11   48 1
    21   11   49 1
    22   12   13 am
    23   12   50 1
    24   13   14 2
    25   13   15 1
    26   15   16 1
    27   15   20 1
    28   15   17 1
    29   17   18 1
    30   17   51 1
    31   17   52 1
    32   18   19 1
    33   18   26 am
    34   19   20 1
    35   19   53 1
    36   19   54 1
    37   20   25 1
    38   20   21 1
    39   21   22 1
    40   21   55 1
    41   21   56 1
    42   22   23 1
    43   22   57 1
    44   22   58 1
    45   23   24 1
    46   23   59 1
    47   23   71 1
    48   24   25 1
    49   24   60 1
    50   24   61 1
    51   25   62 1
    52   25   63 1
    53   26   27 2
    54   26   28 1
    55   28   32 1
    56   28   29 2
    57   29   30 1
    58   29   40 1
    59   30   31 1
    60   31   32 2
    61   32   33 1
    62   33   38 ar
    63   33   34 ar
    64   34   35 ar
    65   34   64 1
    66   35   36 ar
    67   35   65 1
    68   36   37 ar
    69   36   66 1
    70   37   38 ar
    71   37   67 1
    72   38   39 1
    73   40   68 1
    74   40   69 1
    75   40   70 1
