@<TRIPOS>MOLECULE
ZINC45945546
   74    76     0     0     0
SMALL
USER_CHARGES

@<TRIPOS>ATOM
      1 C1         -0.3849    1.9451    1.1722 C.3       1 <0>        -0.1570
      2 C2         -0.2566    0.4375    0.9452 C.3       1 <0>         0.0508
      3 O1         -1.5586   -0.1374    0.8173 O.3       1 <0>        -0.3039
      4 C3         -1.6230   -1.4789    0.6098 C.ar      1 <0>         0.1977
      5 C4         -0.4572   -2.2275    0.5367 C.ar      1 <0>        -0.2294
      6 C5         -0.5254   -3.5911    0.3262 C.ar      1 <0>         0.0062
      7 C6         -1.7541   -4.2099    0.1880 C.ar      1 <0>        -0.7256
      8 C7         -2.9174   -3.4660    0.2600 C.ar      1 <0>         0.0241
      9 C8         -2.8548   -2.1031    0.4765 C.ar      1 <0>        -0.1650
     10 S1         -1.8376   -5.9492   -0.0809 S.o2      1 <0>         2.6841
     11 O2         -3.0807   -6.2020   -0.7213 O.2       1 <0>        -0.9325
     12 O3         -0.5943   -6.3319   -0.6529 O.2       1 <0>        -0.9475
     13 N1         -1.9162   -6.6716    1.4072 N.pl3     1 <0>        -0.9918
     14 C9         -3.2175   -6.9249    2.0306 C.3       1 <0>         0.1328
     15 C10        -3.6631   -8.3548    1.7179 C.3       1 <0>        -0.1661
     16 C11        -5.0018   -8.6154    2.3592 C.2       1 <0>         0.5200
     17 O4         -5.5458   -7.7433    3.0029 O.2       1 <0>        -0.5402
     18 N2         -5.5943   -9.8175    2.2173 N.am      1 <0>        -0.6114
     19 C12        -4.9491  -10.8909    1.4460 C.3       1 <0>         0.1081
     20 C13        -5.9569  -11.4301    0.4252 C.3       1 <0>         0.0383
     21 N3         -7.1913  -11.8199    1.1195 N.3       1 <0>        -0.6901
     22 C14        -7.8341  -10.6616    1.7545 C.3       1 <0>         0.0403
     23 C15        -6.9005  -10.0929    2.8348 C.3       1 <0>         0.1143
     24 C16        -0.6845   -7.0572    2.1002 C.3       1 <0>         0.0884
     25 C17        -0.2735   -5.9448    3.0669 C.3       1 <0>        -0.0529
     26 N4          0.8858   -6.3843    3.8548 N.4       1 <0>        -0.3726
     27 C18         0.5031   -7.5303    4.6881 C.3       1 <0>         0.0199
     28 H1          0.2203   -8.3661    4.0481 H         1 <0>         0.1372
     29 C19         1.6838   -7.9411    5.5705 C.3       1 <0>        -0.1390
     30 C20         2.8686   -8.3281    4.6807 C.3       1 <0>        -0.1392
     31 C21         3.2115   -7.1506    3.7636 C.3       1 <0>        -0.1384
     32 C22         1.9742   -6.7691    2.9482 C.3       1 <0>         0.0172
     33 H2          1.6601   -7.6211    2.3452 H         1 <0>         0.1397
     34 C23         2.3121   -5.5929    2.0299 C.3       1 <0>        -0.1896
     35 C24        -0.6830   -7.1428    5.5735 C.3       1 <0>        -0.1848
     36 H3          0.6082    2.3837    1.2697 H         1 <0>         0.0852
     37 H4         -0.9002    2.3976    0.3249 H         1 <0>         0.0717
     38 H5         -0.9541    2.1282    2.0836 H         1 <0>         0.0699
     39 H6          0.3125    0.2544    0.0338 H         1 <0>         0.0695
     40 H7          0.2587   -0.0149    1.7924 H         1 <0>         0.0660
     41 H8          0.5028   -1.7445    0.6439 H         1 <0>         0.1410
     42 H9          0.3819   -4.1742    0.2693 H         1 <0>         0.1376
     43 H10        -3.8759   -3.9517    0.1514 H         1 <0>         0.1500
     44 H11        -3.7639   -1.5232    0.5371 H         1 <0>         0.1477
     45 H12        -3.1342   -6.7981    3.1100 H         1 <0>         0.0938
     46 H13        -3.9517   -6.2214    1.6378 H         1 <0>         0.1040
     47 H14        -3.7465   -8.4815    0.6385 H         1 <0>         0.1073
     48 H15        -2.9290   -9.0582    2.1107 H         1 <0>         0.0992
     49 H16        -4.0773  -10.4945    0.9256 H         1 <0>         0.0870
     50 H17        -4.6445  -11.6928    2.1185 H         1 <0>         0.0815
     51 H18        -6.1812  -10.6558   -0.3084 H         1 <0>         0.0394
     52 H19        -5.5338  -12.2985   -0.0797 H         1 <0>         0.0919
     53 H20        -7.8276  -12.2870    0.4910 H         1 <0>         0.3529
     54 H21        -8.0323   -9.8980    1.0023 H         1 <0>         0.0389
     55 H22        -8.7725  -10.9727    2.2135 H         1 <0>         0.0920
     56 H23        -6.7798  -10.8195    3.6383 H         1 <0>         0.0783
     57 H24        -7.3194   -9.1687    3.2330 H         1 <0>         0.0978
     58 H25        -0.8544   -7.9784    2.6576 H         1 <0>         0.1090
     59 H26         0.1090   -7.2155    1.3699 H         1 <0>         0.1192
     60 H27        -0.0106   -5.0508    2.5014 H         1 <0>         0.1317
     61 H28        -1.1037   -5.7201    3.7364 H         1 <0>         0.1449
     62 H29         1.9672   -7.1061    6.2112 H         1 <0>         0.0885
     63 H30         1.3982   -8.7933    6.1872 H         1 <0>         0.1125
     64 H31         3.7300   -8.5672    5.3044 H         1 <0>         0.0963
     65 H32         2.6027   -9.1954    4.0764 H         1 <0>         0.0827
     66 H33         3.5267   -6.2991    4.3668 H         1 <0>         0.0885
     67 H34         4.0179   -7.4377    3.0887 H         1 <0>         0.1136
     68 H35         2.6250   -4.7400    2.6321 H         1 <0>         0.0835
     69 H36         3.1203   -5.8782    1.3564 H         1 <0>         0.1119
     70 H37         1.4317   -5.3225    1.4468 H         1 <0>         0.0787
     71 H38        -1.5601   -6.9687    4.9502 H         1 <0>         0.0829
     72 H39        -0.8910   -7.9498    6.2760 H         1 <0>         0.1074
     73 H40        -0.4430   -6.2338    6.1250 H         1 <0>         0.0815
     74 H41         1.1946   -5.6283    4.4474 H         1 <0>         0.4227
@<TRIPOS>BOND
     1    1    2 1
     2    1   36 1
     3    1   37 1
     4    1   38 1
     5    2    3 1
     6    2   39 1
     7    2   40 1
     8    3    4 1
     9    4    9 ar
    10    4    5 ar
    11    5    6 ar
    12    5   41 1
    13    6    7 ar
    14    6   42 1
    15    7    8 ar
    16    7   10 1
    17    8    9 ar
    18    8   43 1
    19    9   44 1
    20   10   11 2
    21   10   12 2
    22   10   13 1
    23   13   14 1
    24   13   24 1
    25   14   15 1
    26   14   45 1
    27   14   46 1
    28   15   16 1
    29   15   47 1
    30   15   48 1
    31   16   17 2
    32   16   18 am
    33   18   23 1
    34   18   19 1
    35   19   20 1
    36   19   49 1
    37   19   50 1
    38   20   21 1
    39   20   51 1
    40   20   52 1
    41   21   22 1
    42   21   53 1
    43   22   23 1
    44   22   54 1
    45   22   55 1
    46   23   56 1
    47   23   57 1
    48   24   25 1
    49   24   58 1
    50   24   59 1
    51   25   26 1
    52   25   60 1
    53   25   61 1
    54   26   32 1
    55   26   27 1
    56   26   74 1
    57   27   28 1
    58   27   29 1
    59   27   35 1
    60   29   30 1
    61   29   62 1
    62   29   63 1
    63   30   31 1
    64   30   64 1
    65   30   65 1
    66   31   32 1
    67   31   66 1
    68   31   67 1
    69   32   33 1
    70   32   34 1
    71   34   68 1
    72   34   69 1
    73   34   70 1
    74   35   71 1
    75   35   72 1
    76   35   73 1
