@<TRIPOS>MOLECULE
ZINC09296133
   46    48     0     0     0
SMALL
USER_CHARGES
methyl 2-[3-(4-chlorophenyl)-5-[(4-hydroxy-3-methoxy-phenyl)methylene]-4-oxo-2-thioxo-imidazolidin-1-yl]acetate
@<TRIPOS>ATOM
      1 C1         -4.8132    7.6192   -3.0408 C.3       1 <0>         0.0211
      2 O1         -5.6727    6.6673   -2.4105 O.3       1 <0>        -0.3015
      3 C2         -5.1004    5.8132   -1.5203 C.ar      1 <0>         0.1100
      4 C3         -3.7470    5.8947   -1.2578 C.ar      1 <0>        -0.1731
      5 C4         -3.1604    5.0098   -0.3449 C.ar      1 <0>        -0.0625
      6 C5         -3.9516    4.0547    0.3047 C.ar      1 <0>        -0.1418
      7 C6         -5.3017    3.9845    0.0403 C.ar      1 <0>        -0.0982
      8 C7         -5.8813    4.8591   -0.8691 C.ar      1 <0>         0.1022
      9 O2         -7.2135    4.7854   -1.1249 O.3       1 <0>        -0.4811
     10 C8         -1.7208    5.0872   -0.0653 C.2       1 <0>         0.0091
     11 C9         -0.9417    3.9851   -0.2074 C.2       1 <0>         0.0033
     12 C10         0.4141    3.7751    0.3230 C.2       1 <0>         0.5557
     13 O3          1.0706    4.5594    0.9830 O.2       1 <0>        -0.4305
     14 N1          0.7837    2.5393   -0.0699 N.am      1 <0>        -0.4853
     15 C11        -0.2027    1.9745   -0.7830 C.2       1 <0>         0.5222
     16 S1         -0.1299    0.4060   -1.4653 S.2       1 <0>        -0.4861
     17 N2         -1.2537    2.8057   -0.8957 N.pl3     1 <0>        -0.4856
     18 C12        -2.5031    2.5263   -1.6080 C.3       1 <0>         0.1271
     19 C13        -3.4190    1.7240   -0.7200 C.2       1 <0>         0.4596
     20 O4         -3.0510    1.3872    0.3805 O.2       1 <0>        -0.4925
     21 O5         -4.6435    1.3836   -1.1517 O.3       1 <0>        -0.3448
     22 C14        -5.4714    0.6106   -0.2432 C.3       1 <0>         0.0359
     23 C15         2.0144    1.9352    0.2224 C.ar      1 <0>         0.1200
     24 C16         2.0679    0.8474    1.0835 C.ar      1 <0>        -0.0644
     25 C17         3.2809    0.2501    1.3651 C.ar      1 <0>        -0.0974
     26 C18         4.4439    0.7427    0.7994 C.ar      1 <0>        -0.0152
     27 C19         4.3938    1.8304   -0.0547 C.ar      1 <0>        -0.0993
     28 C20         3.1825    2.4273   -0.3442 C.ar      1 <0>        -0.0768
     29 Cl1         5.9680   -0.0055    1.1614 Cl        1 <0>        -0.0543
     30 H1         -4.3534    8.2521   -2.2818 H         1 <0>         0.0588
     31 H2         -4.0357    7.0948   -3.5964 H         1 <0>         0.0590
     32 H3         -5.3950    8.2368   -3.7251 H         1 <0>         0.1063
     33 H4         -3.1420    6.6362   -1.7583 H         1 <0>         0.1446
     34 H5         -3.5036    3.3730    1.0126 H         1 <0>         0.1424
     35 H6         -5.9111    3.2474    0.5419 H         1 <0>         0.1410
     36 H7         -7.7562    5.3384   -0.5464 H         1 <0>         0.3931
     37 H8         -1.2820    6.0212    0.2534 H         1 <0>         0.1737
     38 H9         -2.9870    3.4658   -1.8750 H         1 <0>         0.1436
     39 H10        -2.2862    1.9592   -2.5133 H         1 <0>         0.1501
     40 H11        -6.4322    0.4034   -0.7144 H         1 <0>         0.1081
     41 H12        -4.9723   -0.3293   -0.0074 H         1 <0>         0.0681
     42 H13        -5.6313    1.1772    0.6740 H         1 <0>         0.0634
     43 H14         1.1612    0.4657    1.5289 H         1 <0>         0.1401
     44 H15         3.3225   -0.5991    2.0310 H         1 <0>         0.1472
     45 H16         5.3028    2.2130   -0.4949 H         1 <0>         0.1471
     46 H17         3.1439    3.2759   -1.0111 H         1 <0>         0.1378
@<TRIPOS>BOND
     1    1    2 1
     2    1   30 1
     3    1   31 1
     4    1   32 1
     5    2    3 1
     6    3    8 ar
     7    3    4 ar
     8    4    5 ar
     9    4   33 1
    10    5    6 ar
    11    5   10 1
    12    6    7 ar
    13    6   34 1
    14    7    8 ar
    15    7   35 1
    16    8    9 1
    17    9   36 1
    18   10   11 2
    19   10   37 1
    20   11   17 1
    21   11   12 1
    22   12   13 2
    23   12   14 am
    24   14   15 1
    25   14   23 1
    26   15   16 2
    27   15   17 1
    28   17   18 1
    29   18   19 1
    30   18   38 1
    31   18   39 1
    32   19   20 2
    33   19   21 1
    34   21   22 1
    35   22   40 1
    36   22   41 1
    37   22   42 1
    38   23   28 ar
    39   23   24 ar
    40   24   25 ar
    41   24   43 1
    42   25   26 ar
    43   25   44 1
    44   26   27 ar
    45   26   29 1
    46   27   28 ar
    47   27   45 1
    48   28   46 1
