@<TRIPOS>MOLECULE
ZINC15547729
   67    70     0     0     0
SMALL
USER_CHARGES
N-(6-amino-1-benzyl-2,4-dioxo-pyrimidin-5-yl)-N-(3-methoxypropyl)-2-[(4R)-4-methyl-6,7-dihydro-4H-thieno[3,2-c]pyridin-5-yl]acetamide
@<TRIPOS>ATOM
      1 C1          0.7259   -2.2247   -0.8641 C.3       1 <0>        -0.1833
      2 C2          1.7549   -1.8904    0.2177 C.3       1 <0>         0.1051
      3 H1          1.4696   -2.3649    1.1566 H         1 <0>         0.1498
      4 C3          1.8245   -0.3782    0.4085 C.2       1 <0>        -0.1531
      5 C4          0.7078    0.4538    0.4327 C.2       1 <0>        -0.1508
      6 C5          0.8611    1.7877    0.6041 C.2       1 <0>        -0.1524
      7 S1          2.6362    1.9399    0.7448 S.3       1 <0>         0.1403
      8 C6          3.0363    0.2247    0.5657 C.2       1 <0>        -0.1854
      9 C7          4.3713   -0.4457    0.5789 C.3       1 <0>        -0.0584
     10 C8          4.1346   -1.9571    0.7384 C.3       1 <0>         0.0018
     11 C9          3.0765   -3.8307   -0.3734 C.3       1 <0>        -0.0356
     12 C10         4.3496   -4.2555   -1.0589 C.2       1 <0>         0.4888
     13 O1          5.1777   -3.4249   -1.3693 O.2       1 <0>        -0.5133
     14 N1          4.5685   -5.5596   -1.3274 N.am      1 <0>        -0.4831
     15 C11         3.6172   -6.5727   -0.8638 C.3       1 <0>         0.0988
     16 C12         2.5721   -6.8269   -1.9519 C.3       1 <0>        -0.1393
     17 C13         1.5787   -7.8849   -1.4677 C.3       1 <0>         0.0604
     18 O2          0.6026   -8.1223   -2.4840 O.3       1 <0>        -0.3919
     19 C14        -0.3783   -9.0997   -2.1309 C.3       1 <0>         0.0301
     20 C15         5.7136   -5.9475   -2.0548 C.2       1 <0>        -0.1799
     21 C16         5.8895   -5.5344   -3.3596 C.2       1 <0>         0.5222
     22 N2          7.0183   -5.9256   -4.0414 N.am      1 <0>        -0.5312
     23 C17         7.9354   -6.7099   -3.4465 C.2       1 <0>         0.7114
     24 O3          8.9241   -7.0490   -4.0679 O.2       1 <0>        -0.5152
     25 N3          7.7785   -7.1260   -2.1773 N.am      1 <0>        -0.6607
     26 H2          8.4753   -7.7082   -1.7583 H         1 <0>         0.4455
     27 C18         6.6932   -6.7674   -1.4638 C.2       1 <0>         0.5750
     28 O4          6.5608   -7.1503   -0.3136 O.2       1 <0>        -0.5218
     29 C19         7.2206   -5.4899   -5.4254 C.3       1 <0>         0.1484
     30 C20         6.6037   -6.4948   -6.3637 C.ar      1 <0>        -0.1334
     31 C21         7.3575   -7.5529   -6.8362 C.ar      1 <0>        -0.0848
     32 C22         6.7901   -8.4777   -7.6928 C.ar      1 <0>        -0.1170
     33 C23         5.4720   -8.3383   -8.0855 C.ar      1 <0>        -0.0998
     34 C24         4.7199   -7.2771   -7.6175 C.ar      1 <0>        -0.1200
     35 C25         5.2856   -6.3555   -6.7564 C.ar      1 <0>        -0.1036
     36 N4          4.9500   -4.7380   -3.9693 N.pl3     1 <0>        -0.8232
     37 H3          1.0196   -1.7545   -1.8026 H         1 <0>         0.0844
     38 H4          0.6781   -3.3053   -0.9985 H         1 <0>         0.0846
     39 H5         -0.2529   -1.8524   -0.5619 H         1 <0>         0.1117
     40 H6         -0.2805    0.0347    0.3143 H         1 <0>         0.1435
     41 H7          0.1070    2.5599    0.6414 H         1 <0>         0.1993
     42 H8          4.8921   -0.2503   -0.3585 H         1 <0>         0.1134
     43 H9          4.9630   -0.0741    1.4155 H         1 <0>         0.1284
     44 H10         5.0546   -2.4967    0.5135 H         1 <0>         0.1491
     45 H11         3.8230   -2.1723    1.7605 H         1 <0>         0.1349
     46 H12         3.0094   -4.3150    0.6008 H         1 <0>         0.1669
     47 H13         2.2211   -4.1211   -0.9833 H         1 <0>         0.1617
     48 H14         4.1495   -7.4990   -0.6477 H         1 <0>         0.1095
     49 H15         3.1217   -6.2190    0.0404 H         1 <0>         0.0882
     50 H16         2.0399   -5.9005   -2.1680 H         1 <0>         0.0678
     51 H17         3.0677   -7.1805   -2.8561 H         1 <0>         0.0844
     52 H18         2.1109   -8.8112   -1.2516 H         1 <0>         0.0579
     53 H19         1.0831   -7.5312   -0.5635 H         1 <0>         0.0529
     54 H20         0.1134  -10.0512   -1.9286 H         1 <0>         0.0464
     55 H21        -0.9144   -8.7712   -1.2405 H         1 <0>         0.0444
     56 H22        -1.0820   -9.2221   -2.9542 H         1 <0>         0.0912
     57 H23         6.7495   -4.5181   -5.5729 H         1 <0>         0.1000
     58 H24         8.2885   -5.4106   -5.6289 H         1 <0>         0.1254
     59 H25         8.3886   -7.6592   -6.5329 H         1 <0>         0.1339
     60 H26         7.3776   -9.3069   -8.0581 H         1 <0>         0.1298
     61 H27         5.0298   -9.0588   -8.7576 H         1 <0>         0.1284
     62 H28         3.6901   -7.1683   -7.9243 H         1 <0>         0.1269
     63 H29         4.6980   -5.5264   -6.3908 H         1 <0>         0.1140
     64 H30         4.1090   -4.5517   -3.5233 H         1 <0>         0.4156
     65 H31         5.1278   -4.3623   -4.8457 H         1 <0>         0.4125
     66 N5          3.0866   -2.3618   -0.2296 N.4       1 <0>        -0.3805
     67 H32         3.2978   -1.9394   -1.1414 H         1 <0>         0.4327
@<TRIPOS>BOND
     1    1    2 1
     2    1   37 1
     3    1   38 1
     4    1   39 1
     5    2    3 1
     6    2    4 1
     7    2   66 1
     8    4    8 2
     9    4    5 1
    10    5    6 2
    11    5   40 1
    12    6    7 1
    13    6   41 1
    14    7    8 1
    15    8    9 1
    16    9   10 1
    17    9   42 1
    18    9   43 1
    19   10   44 1
    20   10   45 1
    21   10   66 1
    22   11   12 1
    23   11   46 1
    24   11   47 1
    25   11   66 1
    26   12   13 2
    27   12   14 am
    28   14   15 1
    29   14   20 1
    30   15   16 1
    31   15   48 1
    32   15   49 1
    33   16   17 1
    34   16   50 1
    35   16   51 1
    36   17   18 1
    37   17   52 1
    38   17   53 1
    39   18   19 1
    40   19   54 1
    41   19   55 1
    42   19   56 1
    43   20   27 1
    44   20   21 2
    45   21   22 1
    46   21   36 1
    47   22   23 am
    48   22   29 1
    49   23   24 2
    50   23   25 am
    51   25   26 1
    52   25   27 am
    53   27   28 2
    54   29   30 1
    55   29   57 1
    56   29   58 1
    57   30   35 ar
    58   30   31 ar
    59   31   32 ar
    60   31   59 1
    61   32   33 ar
    62   32   60 1
    63   33   34 ar
    64   33   61 1
    65   34   35 ar
    66   34   62 1
    67   35   63 1
    68   36   64 1
    69   36   65 1
    70   66   67 1
