@<TRIPOS>MOLECULE
ZINC35778726
   70    72     0     0     0
SMALL
USER_CHARGES

@<TRIPOS>ATOM
      1 C1         -4.5583   -4.8553    1.4981 C.3       1 <0>        -0.1554
      2 C2         -3.1509   -4.3902    1.1190 C.3       1 <0>         0.0580
      3 O1         -2.2982   -4.4710    2.2629 O.3       1 <0>        -0.3764
      4 C3         -0.9531   -4.0568    2.0157 C.3       1 <0>         0.0322
      5 C4         -0.1355   -4.1844    3.3025 C.3       1 <0>         0.0846
      6 H1         -0.2137   -5.2028    3.6832 H         1 <0>         0.1285
      7 C5          1.3309   -3.8608    3.0093 C.3       1 <0>        -0.0502
      8 N1          2.1189   -3.9999    4.2413 N.4       1 <0>        -0.3634
      9 C6          3.4993   -3.5641    3.9914 C.3       1 <0>        -0.0191
     10 C7          3.5141   -2.0638    3.6917 C.3       1 <0>        -0.1433
     11 C8          4.9612   -1.5831    3.5659 C.3       1 <0>         0.0640
     12 O2          4.9750   -0.1819    3.2859 O.3       1 <0>        -0.3894
     13 C9          6.2858    0.3705    3.1486 C.3       1 <0>         0.0301
     14 C10         2.1187   -5.4060    4.6665 C.3       1 <0>        -0.0391
     15 C11         2.8221   -5.5296    5.9935 C.2       1 <0>         0.5079
     16 O3          3.2787   -4.5434    6.5320 O.2       1 <0>        -0.5261
     17 N2          2.9439   -6.7360    6.5819 N.am      1 <0>        -0.5777
     18 C12         2.3995   -7.9392    5.9352 C.3       1 <0>         0.0979
     19 C13         3.5710   -8.8670    5.5781 C.3       1 <0>        -0.0540
     20 C14         4.5223   -8.9021    6.7297 C.2       1 <0>        -0.1440
     21 C15         4.5981   -8.0384    7.7784 C.2       1 <0>        -0.1318
     22 C16         5.5898   -8.2892    8.7253 C.2       1 <0>        -0.1516
     23 C17         6.4133   -9.3521    8.5771 C.2       1 <0>        -0.1606
     24 S1          5.8158  -10.0712    7.0549 S.3       1 <0>         0.0756
     25 C18         3.6277   -6.8682    7.8755 C.3       1 <0>         0.2142
     26 H2          4.1757   -5.9528    8.0986 H         1 <0>         0.1358
     27 C19         2.6025   -7.1411    8.9780 C.3       1 <0>         0.0523
     28 O4          1.9841   -8.4091    8.7500 O.3       1 <0>        -0.2991
     29 C20         1.0414   -8.8059    9.6457 C.ar      1 <0>         0.0906
     30 C21         0.7146   -7.9896   10.7178 C.ar      1 <0>        -0.1818
     31 C22        -0.2437   -8.3949   11.6271 C.ar      1 <0>        -0.0871
     32 C23        -0.8772   -9.6137   11.4697 C.ar      1 <0>        -0.1219
     33 C24        -0.5542  -10.4310   10.4024 C.ar      1 <0>        -0.1142
     34 C25         0.3997  -10.0275    9.4854 C.ar      1 <0>         0.0703
     35 F1          0.7114  -10.8231    8.4389 F         1 <0>        -0.1325
     36 O5         -0.6388   -3.2708    4.2793 O.3       1 <0>        -0.5438
     37 H3         -4.9509   -4.2171    2.2897 H         1 <0>         0.0663
     38 H4         -5.2086   -4.7937    0.6255 H         1 <0>         0.0784
     39 H5         -4.5180   -5.8865    1.8491 H         1 <0>         0.0654
     40 H6         -2.7582   -5.0284    0.3274 H         1 <0>         0.0539
     41 H7         -3.1912   -3.3591    0.7680 H         1 <0>         0.0541
     42 H8         -0.5149   -4.6881    1.2426 H         1 <0>         0.0695
     43 H9         -0.9478   -3.0188    1.6833 H         1 <0>         0.0656
     44 H10         1.7112   -4.5496    2.2550 H         1 <0>         0.1468
     45 H11         1.4105   -2.8381    2.6406 H         1 <0>         0.1461
     46 H12         4.1087   -3.7646    4.8726 H         1 <0>         0.1515
     47 H13         3.9036   -4.1090    3.1384 H         1 <0>         0.1307
     48 H14         2.9859   -1.8748    2.7571 H         1 <0>         0.0926
     49 H15         3.0219   -1.5264    4.5023 H         1 <0>         0.0972
     50 H16         5.4894   -1.7721    4.5004 H         1 <0>         0.0614
     51 H17         5.4534   -2.1205    2.7553 H         1 <0>         0.0588
     52 H18         6.8414    0.2220    4.0745 H         1 <0>         0.0481
     53 H19         6.8054   -0.1263    2.3294 H         1 <0>         0.0474
     54 H20         6.2103    1.4371    2.9373 H         1 <0>         0.0956
     55 H21         1.0910   -5.7553    4.7662 H         1 <0>         0.1635
     56 H22         2.6374   -6.0106    3.9226 H         1 <0>         0.1625
     57 H23         1.7221   -8.4497    6.6198 H         1 <0>         0.1128
     58 H24         1.8636   -7.6585    5.0285 H         1 <0>         0.0915
     59 H25         3.1956   -9.8716    5.3832 H         1 <0>         0.1048
     60 H26         4.0818   -8.4870    4.6934 H         1 <0>         0.0874
     61 H27         5.7010   -7.6346    9.5770 H         1 <0>         0.1340
     62 H28         7.2220   -9.6803    9.2133 H         1 <0>         0.1918
     63 H29         3.1036   -7.1500    9.9459 H         1 <0>         0.0858
     64 H30         1.8428   -6.3595    8.9693 H         1 <0>         0.0745
     65 H31         1.2092   -7.0376   10.8424 H         1 <0>         0.1352
     66 H32        -0.4981   -7.7588   12.4620 H         1 <0>         0.1352
     67 H33        -1.6256   -9.9281   12.1820 H         1 <0>         0.1385
     68 H34        -1.0499  -11.3829   10.2820 H         1 <0>         0.1451
     69 H35        -0.6660   -2.3515    3.9807 H         1 <0>         0.3919
     70 H36         1.7120   -3.4290    4.9670 H         1 <0>         0.4365
@<TRIPOS>BOND
     1    1    2 1
     2    1   37 1
     3    1   38 1
     4    1   39 1
     5    2    3 1
     6    2   40 1
     7    2   41 1
     8    3    4 1
     9    4    5 1
    10    4   42 1
    11    4   43 1
    12    5    6 1
    13    5    7 1
    14    5   36 1
    15    7    8 1
    16    7   44 1
    17    7   45 1
    18    8    9 1
    19    8   14 1
    20    8   70 1
    21    9   10 1
    22    9   46 1
    23    9   47 1
    24   10   11 1
    25   10   48 1
    26   10   49 1
    27   11   12 1
    28   11   50 1
    29   11   51 1
    30   12   13 1
    31   13   52 1
    32   13   53 1
    33   13   54 1
    34   14   15 1
    35   14   55 1
    36   14   56 1
    37   15   16 2
    38   15   17 am
    39   17   25 1
    40   17   18 1
    41   18   19 1
    42   18   57 1
    43   18   58 1
    44   19   20 1
    45   19   59 1
    46   19   60 1
    47   20   24 1
    48   20   21 2
    49   21   22 1
    50   21   25 1
    51   22   23 2
    52   22   61 1
    53   23   24 1
    54   23   62 1
    55   25   26 1
    56   25   27 1
    57   27   28 1
    58   27   63 1
    59   27   64 1
    60   28   29 1
    61   29   34 ar
    62   29   30 ar
    63   30   31 ar
    64   30   65 1
    65   31   32 ar
    66   31   66 1
    67   32   33 ar
    68   32   67 1
    69   33   34 ar
    70   33   68 1
    71   34   35 1
    72   36   69 1
