@<TRIPOS>MOLECULE
ZINC19802799
   31    32     0     0     0
SMALL
USER_CHARGES

@<TRIPOS>ATOM
      1 C1          0.4204    2.2809   -0.6103 C.3       1 <0>        -0.1120
      2 C2          1.9276    2.5086   -0.4525 C.3       1 <0>        -0.1089
      3 C3          2.6410    1.8590   -1.6382 C.3       1 <0>        -0.1350
      4 C4          2.3522    0.3766   -1.7061 C.3       1 <0>         0.1613
      5 H1          2.7890   -0.0209   -2.6223 H         1 <0>         0.0524
      6 C5          0.8458    0.0574   -1.7050 C.3       1 <0>        -0.0875
      7 H2          0.3776    0.2420   -2.6718 H         1 <0>         0.0834
      8 C6          0.1439    0.7805   -0.5536 C.3       1 <0>        -0.1446
      9 C7          0.8759   -1.4556   -1.3278 C.3       1 <0>        -0.1062
     10 C8          2.0443   -1.5300   -0.3199 C.3       1 <0>         0.0780
     11 H3          2.6039   -2.4535   -0.4681 H         1 <0>         0.0641
     12 N1          2.9016   -0.3666   -0.5691 N.pl3     1 <0>        -0.9767
     13 S1          4.2652    0.0269    0.2842 S.o2      1 <0>         2.8079
     14 O1          4.3614    1.4445    0.2649 O.2       1 <0>        -0.9855
     15 O2          4.2159   -0.7169    1.4940 O.2       1 <0>        -0.9515
     16 N2          5.5613   -0.5472   -0.5719 N.pl3     1 <0>        -1.2774
     17 C9          1.5112   -1.4739    1.0886 C.2       1 <0>         0.4957
     18 O3          0.9087   -2.4277    1.5508 O.co2     1 <0>        -0.6975
     19 O4          1.6825   -0.4746    1.7658 O.co2     1 <0>        -0.6658
     20 H4         -0.1117    2.7817    0.1985 H         1 <0>         0.0542
     21 H5          0.0892    2.6778   -1.5699 H         1 <0>         0.0468
     22 H6          2.1378    3.5780   -0.4388 H         1 <0>         0.0517
     23 H7          2.2721    2.0544    0.4766 H         1 <0>         0.0822
     24 H8          2.3031    2.3313   -2.5607 H         1 <0>         0.0632
     25 H9          3.7157    2.0090   -1.5343 H         1 <0>         0.0832
     26 H10         0.5077    0.3840    0.3944 H         1 <0>         0.1174
     27 H11        -0.9304    0.6105   -0.6245 H         1 <0>         0.0474
     28 H12        -0.0604   -1.7554   -0.8570 H         1 <0>         0.0812
     29 H13         1.0825   -2.0687   -2.2050 H         1 <0>         0.0603
     30 H14         5.4180   -1.0730   -1.3743 H         1 <0>         0.4071
     31 H15         6.4637   -0.3575   -0.2710 H         1 <0>         0.4108
@<TRIPOS>BOND
     1    1    8 1
     2    1    2 1
     3    1   20 1
     4    1   21 1
     5    2    3 1
     6    2   22 1
     7    2   23 1
     8    3    4 1
     9    3   24 1
    10    3   25 1
    11    4    5 1
    12    4   12 1
    13    4    6 1
    14    6    7 1
    15    6    8 1
    16    6    9 1
    17    8   26 1
    18    8   27 1
    19    9   10 1
    20    9   28 1
    21    9   29 1
    22   10   11 1
    23   10   12 1
    24   10   17 1
    25   12   13 1
    26   13   14 2
    27   13   15 2
    28   13   16 1
    29   16   30 1
    30   16   31 1
    31   17   18 2
    32   17   19 1
