@<TRIPOS>MOLECULE
ZINC62796045
   32    33     0     0     0
SMALL
USER_CHARGES

@<TRIPOS>ATOM
      1 C1         -0.0169    1.3938    0.0097 C.ar      1 <0>         0.0086
      2 C2          1.1666    2.0972    0.0022 C.ar      1 <0>        -0.1728
      3 C3          2.3812    1.4187   -0.0131 C.ar      1 <0>         0.2708
      4 C4          2.4045    0.0257   -0.0208 C.ar      1 <0>        -0.1187
      5 C5          1.2244   -0.6838   -0.0138 C.ar      1 <0>        -0.0260
      6 C6          0.0021   -0.0041    0.0020 C.ar      1 <0>        -0.1629
      7 C7         -1.2628   -0.7597    0.0105 C.2       1 <0>         0.4081
      8 S1         -2.6289   -0.1515   -0.8231 S.2       1 <0>        -0.5629
      9 N1         -1.3444   -1.9297    0.6746 N.pl3     1 <0>        -0.7655
     10 Cl1         3.9225   -0.8162   -0.0398 Cl        1 <0>        -0.0627
     11 N2          3.5757    2.1332   -0.0211 N.pl3     1 <0>        -0.7130
     12 C8          3.5531    3.5980   -0.0135 C.3       1 <0>         0.1366
     13 H1          2.7112    3.9440    0.5862 H         1 <0>         0.1184
     14 C9          4.8576    4.1235    0.5906 C.3       1 <0>        -0.1316
     15 C10         4.9340    5.6344    0.3395 C.3       1 <0>        -0.1343
     16 C11         5.0981    5.8735   -1.1619 C.3       1 <0>         0.1044
     17 N3          4.0877    5.1355   -1.9095 N.am      1 <0>        -0.7179
     18 C12         3.4040    4.1019   -1.4203 C.2       1 <0>         0.4950
     19 O1          2.6174    3.5384   -2.1515 O.2       1 <0>        -0.5292
     20 H2         -0.9591    1.9215    0.0260 H         1 <0>         0.1494
     21 H3          1.1522    3.1771    0.0078 H         1 <0>         0.1378
     22 H4          1.2427   -1.7636   -0.0205 H         1 <0>         0.1360
     23 H5         -0.5705   -2.2743    1.1469 H         1 <0>         0.4027
     24 H6         -2.1772   -2.4271    0.6802 H         1 <0>         0.4233
     25 H7          4.4230    1.6613   -0.0317 H         1 <0>         0.4094
     26 H8          4.8702    3.9287    1.6629 H         1 <0>         0.0893
     27 H9          5.7063    3.6296    0.1174 H         1 <0>         0.0791
     28 H10         4.0168    6.1097    0.6874 H         1 <0>         0.0790
     29 H11         5.7892    6.0508    0.8718 H         1 <0>         0.0952
     30 H12         4.9945    6.9383   -1.3706 H         1 <0>         0.0826
     31 H13         6.0892    5.5434   -1.4731 H         1 <0>         0.0691
     32 H14         3.9023    5.4139   -2.8200 H         1 <0>         0.4027
@<TRIPOS>BOND
     1    1    6 ar
     2    1    2 ar
     3    1   20 1
     4    2    3 ar
     5    2   21 1
     6    3    4 ar
     7    3   11 1
     8    4    5 ar
     9    4   10 1
    10    5    6 ar
    11    5   22 1
    12    6    7 1
    13    7    8 2
    14    7    9 1
    15    9   23 1
    16    9   24 1
    17   11   12 1
    18   11   25 1
    19   12   13 1
    20   12   18 1
    21   12   14 1
    22   14   15 1
    23   14   26 1
    24   14   27 1
    25   15   16 1
    26   15   28 1
    27   15   29 1
    28   16   17 1
    29   16   30 1
    30   16   31 1
    31   17   18 am
    32   17   32 1
    33   18   19 2
