@<TRIPOS>MOLECULE
ZINC32124856
   46    48     0     0     0
SMALL
USER_CHARGES

@<TRIPOS>ATOM
      1 C1          1.1010    2.1896   -0.3125 C.3       1 <0>         0.0240
      2 O1          1.0256    0.7812   -0.0829 O.3       1 <0>        -0.3102
      3 C2          1.3556   -0.0280   -1.1158 C.ar      1 <0>         0.1336
      4 C3          1.7536    0.5291   -2.3363 C.ar      1 <0>        -0.1962
      5 C4          2.0875   -0.2767   -3.3797 C.ar      1 <0>        -0.0488
      6 C5          2.0314   -1.6835   -3.2282 C.ar      1 <0>         0.0476
      7 C6          1.6275   -2.2383   -1.9896 C.ar      1 <0>        -0.1079
      8 C7          1.3023   -1.4173   -0.9554 C.ar      1 <0>        -0.1298
      9 N1          2.3573   -2.4828   -4.2483 N.2       1 <0>        -0.4496
     10 C8          3.1401   -3.5353   -4.0431 C.2       1 <0>         0.3051
     11 N2          3.5697   -4.4428   -4.9708 N.am      1 <0>        -0.6479
     12 C9          4.3541   -5.4307   -4.5546 C.2       1 <0>         0.5511
     13 O2          4.7897   -6.2886   -5.2989 O.2       1 <0>        -0.4751
     14 C10         4.6512   -5.3954   -3.1065 C.2       1 <0>        -0.2982
     15 C11         5.4355   -6.2762   -2.3535 C.2       1 <0>         0.0687
     16 C12         6.1911   -7.2704   -2.9979 C.ar      1 <0>        -0.1029
     17 C13         6.8649   -6.9782   -4.2063 C.ar      1 <0>         0.0300
     18 C14         7.5938   -7.9434   -4.8247 C.ar      1 <0>        -0.1440
     19 C15         7.6786   -9.2281   -4.2669 C.ar      1 <0>        -0.0243
     20 C16         7.0121   -9.5240   -3.0687 C.ar      1 <0>        -0.0035
     21 C17         6.2855   -8.5648   -2.4375 C.ar      1 <0>         0.0034
     22 N3          7.1057  -10.8819   -2.4872 N.pl3     1 <0>        -0.0149
     23 O3          6.4805  -11.1611   -1.3623 O.2       1 <0>        -0.1750
     24 O4          7.8143  -11.8110   -3.0949 O.3       1 <0>        -0.1557
     25 S1          8.6257  -10.4749   -5.0752 S.3       1 <0>         0.0747
     26 C18         9.2822   -9.6423   -6.5470 C.3       1 <0>        -0.1797
     27 C19        10.1356  -10.6252   -7.3510 C.3       1 <0>         0.0967
     28 O5         10.6528   -9.9693   -8.5104 O.3       1 <0>        -0.5697
     29 S2          3.8188   -4.0308   -2.5923 S.3       1 <0>         0.1592
     30 H1          2.1222    2.4597   -0.5816 H         1 <0>         0.0589
     31 H2          0.4272    2.4620   -1.1249 H         1 <0>         0.0587
     32 H3          0.8113    2.7216    0.5937 H         1 <0>         0.1037
     33 H4          1.7954    1.6023   -2.4500 H         1 <0>         0.1369
     34 H5          2.3941    0.1550   -4.3210 H         1 <0>         0.1347
     35 H6          1.5819   -3.3102   -1.8654 H         1 <0>         0.1388
     36 H7          0.9980   -1.8386   -0.0087 H         1 <0>         0.1390
     37 H8          3.3099   -4.3681   -5.9024 H         1 <0>         0.4280
     38 H9          5.4600   -6.1920   -1.2771 H         1 <0>         0.1643
     39 H10         6.7997   -5.9899   -4.6369 H         1 <0>         0.1457
     40 H11         8.1089   -7.7215   -5.7477 H         1 <0>         0.1515
     41 H12         5.7766   -8.7924   -1.5125 H         1 <0>         0.1679
     42 H13         8.4557   -9.2897   -7.1640 H         1 <0>         0.1008
     43 H14         9.8951   -8.7942   -6.2417 H         1 <0>         0.1007
     44 H15        10.9621  -10.9778   -6.7340 H         1 <0>         0.0601
     45 H16         9.5227  -11.4732   -7.6563 H         1 <0>         0.0600
     46 H17        11.2048  -10.5341   -9.0685 H         1 <0>         0.3894
@<TRIPOS>BOND
     1    1    2 1
     2    1   30 1
     3    1   31 1
     4    1   32 1
     5    2    3 1
     6    3    8 ar
     7    3    4 ar
     8    4    5 ar
     9    4   33 1
    10    5    6 ar
    11    5   34 1
    12    6    7 ar
    13    6    9 1
    14    7    8 ar
    15    7   35 1
    16    8   36 1
    17    9   10 2
    18   10   29 1
    19   10   11 1
    20   11   12 am
    21   11   37 1
    22   12   13 2
    23   12   14 1
    24   14   15 2
    25   14   29 1
    26   15   16 1
    27   15   38 1
    28   16   21 ar
    29   16   17 ar
    30   17   18 ar
    31   17   39 1
    32   18   19 ar
    33   18   40 1
    34   19   20 ar
    35   19   25 1
    36   20   21 ar
    37   20   22 1
    38   21   41 1
    39   22   23 2
    40   22   24 1
    41   25   26 1
    42   26   27 1
    43   26   42 1
    44   26   43 1
    45   27   28 1
    46   27   44 1
    47   27   45 1
    48   28   46 1
