@<TRIPOS>MOLECULE
ZINC08386088
   46    48     0     0     0
SMALL
USER_CHARGES
2-chloro-N-[1-[(2,4-dihydroxyphenyl)methyleneaminocarbamoyl]-2-(2-thienyl)vinyl]-benzamide
@<TRIPOS>ATOM
      1 C1         12.0216    0.9559    0.2734 C.ar      1 <0>        -0.1222
      2 C2         12.0487   -0.4230    0.1556 C.ar      1 <0>        -0.0735
      3 C3         10.8796   -1.1280   -0.0635 C.ar      1 <0>        -0.1194
      4 C4          9.6753   -0.4590   -0.1668 C.ar      1 <0>         0.0184
      5 C5          9.6415    0.9327   -0.0487 C.ar      1 <0>        -0.1342
      6 C6         10.8275    1.6374    0.1677 C.ar      1 <0>        -0.0732
      7 C7          8.3580    1.6559   -0.1583 C.2       1 <0>         0.5485
      8 O1          7.3276    1.0399   -0.3518 O.2       1 <0>        -0.4716
      9 N1          8.3290    2.9985   -0.0439 N.am      1 <0>        -0.6482
     10 C8          7.1025    3.6741   -0.0341 C.2       1 <0>         0.0858
     11 C9          7.0751    5.0339   -0.0298 C.2       1 <0>        -0.0780
     12 C10         5.8405    5.7171    0.0939 C.2       1 <0>        -0.1526
     13 C11         5.5824    7.0799    0.0208 C.2       1 <0>        -0.1339
     14 C12         4.2868    7.5062    0.1737 C.2       1 <0>        -0.1634
     15 C13         3.3042    6.5896    0.3902 C.2       1 <0>        -0.1910
     16 S1          4.2084    5.0506    0.3768 S.3       1 <0>         0.1239
     17 C14         5.8499    2.9169   -0.0284 C.2       1 <0>         0.5962
     18 O2          5.3842    2.5178    1.0240 O.2       1 <0>        -0.4672
     19 N2          5.2118    2.6612   -1.1877 N.am      1 <0>        -0.5629
     20 N3          3.9619    2.0283   -1.1746 N.2       1 <0>        -0.1826
     21 C15         3.3914    1.6943   -2.2924 C.2       1 <0>         0.0940
     22 C16         2.1314    0.9316   -2.2771 C.ar      1 <0>        -0.0888
     23 C17         1.5148    0.5712   -3.4783 C.ar      1 <0>        -0.0598
     24 C18         0.3362   -0.1418   -3.4595 C.ar      1 <0>        -0.1598
     25 C19        -0.2399   -0.5094   -2.2491 C.ar      1 <0>         0.1376
     26 C20         0.3613   -0.1515   -1.0512 C.ar      1 <0>        -0.1818
     27 C21         1.5454    0.5646   -1.0571 C.ar      1 <0>         0.1656
     28 O3          2.1377    0.9113    0.1148 O.3       1 <0>        -0.4704
     29 O4         -1.3993   -1.2172   -2.2391 O.3       1 <0>        -0.4978
     30 Cl1         8.2082   -1.3450   -0.4430 Cl        1 <0>        -0.0238
     31 H1         12.9388    1.4999    0.4445 H         1 <0>         0.1398
     32 H2         12.9876   -0.9508    0.2348 H         1 <0>         0.1411
     33 H3         10.9079   -2.2038   -0.1545 H         1 <0>         0.1438
     34 H4         10.8091    2.7137    0.2555 H         1 <0>         0.1352
     35 H5          9.1578    3.4968    0.0316 H         1 <0>         0.4168
     36 H6          7.9948    5.5929   -0.1207 H         1 <0>         0.1527
     37 H7          6.3810    7.7862   -0.1517 H         1 <0>         0.1358
     38 H8          4.0494    8.5585    0.1231 H         1 <0>         0.1334
     39 H9          2.2458    6.7520    0.5305 H         1 <0>         0.1834
     40 H10         5.6179    2.9153   -2.0311 H         1 <0>         0.3821
     41 H11         3.8408    1.9758   -3.2333 H         1 <0>         0.1190
     42 H12         1.9618    0.8517   -4.4206 H         1 <0>         0.1370
     43 H13        -0.1393   -0.4201   -4.3884 H         1 <0>         0.1359
     44 H14        -0.0928   -0.4358   -0.1135 H         1 <0>         0.1382
     45 H15         2.7664    0.2557    0.4467 H         1 <0>         0.3964
     46 H16        -2.1953   -0.6682   -2.2305 H         1 <0>         0.3954
@<TRIPOS>BOND
     1    1    6 ar
     2    1    2 ar
     3    1   31 1
     4    2    3 ar
     5    2   32 1
     6    3    4 ar
     7    3   33 1
     8    4    5 ar
     9    4   30 1
    10    5    6 ar
    11    5    7 1
    12    6   34 1
    13    7    8 2
    14    7    9 am
    15    9   10 1
    16    9   35 1
    17   10   11 2
    18   10   17 1
    19   11   12 1
    20   11   36 1
    21   12   16 1
    22   12   13 2
    23   13   14 1
    24   13   37 1
    25   14   15 2
    26   14   38 1
    27   15   16 1
    28   15   39 1
    29   17   18 2
    30   17   19 am
    31   19   20 1
    32   19   40 1
    33   20   21 2
    34   21   22 1
    35   21   41 1
    36   22   27 ar
    37   22   23 ar
    38   23   24 ar
    39   23   42 1
    40   24   25 ar
    41   24   43 1
    42   25   26 ar
    43   25   29 1
    44   26   27 ar
    45   26   44 1
    46   27   28 1
    47   28   45 1
    48   29   46 1
