@<TRIPOS>MOLECULE
ZINC39912434
   58    62     0     0     0
SMALL
USER_CHARGES

@<TRIPOS>ATOM
      1 C1         -1.8757    3.0394    1.1301 C.3       1 <0>        -0.1135
      2 C2         -1.8505    1.6181    0.6298 C.ar      1 <0>        -0.0888
      3 C3         -2.2549    1.3349   -0.6629 C.ar      1 <0>        -0.0992
      4 C4         -2.2352    0.0347   -1.1304 C.ar      1 <0>        -0.1074
      5 C5         -1.8098   -0.9935   -0.3046 C.ar      1 <0>         0.1247
      6 C6         -1.4007   -0.7105    1.0015 C.ar      1 <0>        -0.0319
      7 C7         -1.4187    0.6041    1.4607 C.ar      1 <0>        -0.0910
      8 C8         -0.9440   -1.8053    1.8933 C.2       1 <0>         0.1160
      9 C9         -0.4010   -1.6580    3.1742 C.2       1 <0>        -0.1732
     10 C10        -0.1270   -2.9380    3.6165 C.2       1 <0>        -0.0590
     11 N1         -0.5073   -3.7775    2.6082 N.pl3     1 <0>        -0.3347
     12 H1         -0.4345   -4.7445    2.6312 H         1 <0>         0.4528
     13 N2         -0.9806   -3.0960    1.6264 N.2       1 <0>        -0.2243
     14 C11         0.4485   -2.8531    4.9634 C.2       1 <0>         0.5972
     15 O1          0.7986   -3.8080    5.6303 O.2       1 <0>        -0.4981
     16 N3          0.5343   -1.5693    5.3560 N.am      1 <0>        -0.5907
     17 C12         0.0129   -0.7215    4.2761 C.3       1 <0>         0.2512
     18 H2         -0.8476   -0.1523    4.6277 H         1 <0>         0.1101
     19 C13         1.0886    0.2130    3.7857 C.ar      1 <0>        -0.0562
     20 C14         0.7992    1.5484    3.5727 C.ar      1 <0>        -0.1426
     21 C15         1.7838    2.4083    3.1229 C.ar      1 <0>        -0.0725
     22 C16         3.0599    1.9350    2.8846 C.ar      1 <0>        -0.2006
     23 C17         3.3527    0.5960    3.0975 C.ar      1 <0>         0.1314
     24 C18         2.3642   -0.2637    3.5548 C.ar      1 <0>        -0.1259
     25 O2          4.6070    0.1281    2.8638 O.3       1 <0>        -0.3166
     26 C19         5.5753    1.0711    2.3999 C.3       1 <0>         0.0268
     27 C20         1.0580   -1.0979    6.6404 C.3       1 <0>         0.1784
     28 C21        -0.0860   -0.8564    7.5912 C.ar      1 <0>        -0.1110
     29 C22        -0.6078    0.4155    7.7360 C.ar      1 <0>        -0.0905
     30 C23        -1.6571    0.6371    8.6080 C.ar      1 <0>        -0.1189
     31 C24        -2.1854   -0.4130    9.3359 C.ar      1 <0>        -0.0988
     32 C25        -1.6645   -1.6849    9.1921 C.ar      1 <0>        -0.1152
     33 C26        -0.6178   -1.9084    8.3150 C.ar      1 <0>        -0.0243
     34 Cl1         0.0327   -3.5072    8.1289 Cl        1 <0>        -0.0375
     35 O3         -1.7908   -2.2724   -0.7628 O.3       1 <0>        -0.4778
     36 C27        -2.6773   -0.2655   -2.5395 C.3       1 <0>        -0.1130
     37 H3         -0.9198    3.5172    0.9156 H         1 <0>         0.0720
     38 H4         -2.6754    3.5863    0.6305 H         1 <0>         0.0682
     39 H5         -2.0503    3.0428    2.2060 H         1 <0>         0.0668
     40 H6         -2.5878    2.1336   -1.3092 H         1 <0>         0.1274
     41 H7         -1.0993    0.8294    2.4675 H         1 <0>         0.1305
     42 H8         -0.1978    1.9201    3.7577 H         1 <0>         0.1277
     43 H9          1.5553    3.4507    2.9573 H         1 <0>         0.1294
     44 H10         3.8285    2.6070    2.5325 H         1 <0>         0.1295
     45 H11         2.5909   -1.3057    3.7258 H         1 <0>         0.1249
     46 H12         6.5312    0.5682    2.2537 H         1 <0>         0.1014
     47 H13         5.2416    1.4992    1.4547 H         1 <0>         0.0564
     48 H14         5.6916    1.8651    3.1375 H         1 <0>         0.0570
     49 H15         1.7256   -1.8510    7.0591 H         1 <0>         0.1072
     50 H16         1.6075   -0.1687    6.4897 H         1 <0>         0.0987
     51 H17        -0.1954    1.2362    7.1679 H         1 <0>         0.1329
     52 H18        -2.0643    1.6310    8.7210 H         1 <0>         0.1308
     53 H19        -3.0050   -0.2391   10.0174 H         1 <0>         0.1324
     54 H20        -2.0770   -2.5050    9.7610 H         1 <0>         0.1335
     55 H21        -0.9568   -2.5284   -1.1800 H         1 <0>         0.3866
     56 H22        -1.8201   -0.2043   -3.2100 H         1 <0>         0.0692
     57 H23        -3.1005   -1.2690   -2.5816 H         1 <0>         0.0745
     58 H24        -3.4309    0.4599   -2.8461 H         1 <0>         0.0678
@<TRIPOS>BOND
     1    1    2 1
     2    1   37 1
     3    1   38 1
     4    1   39 1
     5    2    7 ar
     6    2    3 ar
     7    3    4 ar
     8    3   40 1
     9    4    5 ar
    10    4   36 1
    11    5    6 ar
    12    5   35 1
    13    6    7 ar
    14    6    8 1
    15    7   41 1
    16    8   13 2
    17    8    9 1
    18    9   17 1
    19    9   10 2
    20   10   11 1
    21   10   14 1
    22   11   12 1
    23   11   13 1
    24   14   15 2
    25   14   16 am
    26   16   17 1
    27   16   27 1
    28   17   18 1
    29   17   19 1
    30   19   24 ar
    31   19   20 ar
    32   20   21 ar
    33   20   42 1
    34   21   22 ar
    35   21   43 1
    36   22   23 ar
    37   22   44 1
    38   23   24 ar
    39   23   25 1
    40   24   45 1
    41   25   26 1
    42   26   46 1
    43   26   47 1
    44   26   48 1
    45   27   28 1
    46   27   49 1
    47   27   50 1
    48   28   33 ar
    49   28   29 ar
    50   29   30 ar
    51   29   51 1
    52   30   31 ar
    53   30   52 1
    54   31   32 ar
    55   31   53 1
    56   32   33 ar
    57   32   54 1
    58   33   34 1
    59   35   55 1
    60   36   56 1
    61   36   57 1
    62   36   58 1
