@<TRIPOS>MOLECULE
ZINC64002732
   40    42     0     0     0
SMALL
USER_CHARGES

@<TRIPOS>ATOM
      1 C1         -0.0178    1.4630    0.0101 C.ar      1 <0>         0.1564
      2 C2          1.1176    2.1937    0.0032 C.ar      1 <0>        -0.1699
      3 C3          2.3782    1.5613   -0.0123 C.ar      1 <0>         0.3766
      4 N1          3.6234    1.9901   -0.0223 N.am      1 <0>        -0.5076
      5 C4          4.4531    0.9066   -0.0363 C.2       1 <0>         0.6504
      6 O1          5.6651    0.9565   -0.0474 O.2       1 <0>        -0.2155
      7 N2          3.7057   -0.2561   -0.0352 N.am      1 <0>        -0.4673
      8 C5          2.4418    0.0670   -0.0210 C.ar      1 <0>         0.3869
      9 C6          1.1844   -0.6907   -0.0126 C.ar      1 <0>        -0.0767
     10 C7          0.0021   -0.0041    0.0020 C.ar      1 <0>         0.0016
     11 C8         -1.2674   -0.7464    0.0102 C.2       1 <0>         0.3633
     12 O2         -1.2607   -1.9591    0.0036 O.2       1 <0>        -0.3342
     13 C9         -2.5765   -0.0002    0.0267 C.3       1 <0>         0.0032
     14 N3         -3.6878   -0.9609    0.0322 N.3       1 <0>        -0.5224
     15 C10        -3.7062   -1.7371    1.2786 C.3       1 <0>         0.0465
     16 C11        -4.7815   -2.8225    1.1894 C.3       1 <0>        -0.0991
     17 C12        -6.1446   -2.1656    0.9550 C.3       1 <0>        -0.1125
     18 C13        -6.0840   -1.3245   -0.3231 C.3       1 <0>        -0.1125
     19 C14        -4.9711   -0.2826   -0.1900 C.3       1 <0>         0.0580
     20 C15        -7.1987   -3.2322    0.8064 C.2       1 <0>         0.5186
     21 O3         -6.8913   -4.4031    0.8805 O.2       1 <0>        -0.5362
     22 N4         -8.4831   -2.8850    0.5912 N.am      1 <0>        -0.8538
     23 H1         -0.9693    1.9738    0.0265 H         1 <0>         0.2260
     24 H2          1.0599    3.2721    0.0092 H         1 <0>         0.2298
     25 H3          1.1930   -1.7706   -0.0189 H         1 <0>         0.2318
     26 H4         -2.6292    0.6214    0.9206 H         1 <0>         0.0961
     27 H5         -2.6462    0.6309   -0.8593 H         1 <0>         0.1329
     28 H6         -2.7324   -2.2023    1.4312 H         1 <0>         0.0862
     29 H7         -3.9273   -1.0748    2.1156 H         1 <0>         0.0466
     30 H8         -4.5535   -3.4933    0.3610 H         1 <0>         0.0861
     31 H9         -4.8055   -3.3883    2.1207 H         1 <0>         0.0831
     32 H10        -6.3904   -1.5246    1.8016 H         1 <0>         0.0985
     33 H11        -5.8766   -1.9717   -1.1752 H         1 <0>         0.0841
     34 H12        -7.0387   -0.8201   -0.4724 H         1 <0>         0.0838
     35 H13        -5.1862    0.3729    0.6539 H         1 <0>         0.0517
     36 H14        -4.9159    0.3087   -1.1040 H         1 <0>         0.0902
     37 H15        -8.7290   -1.9486    0.5320 H         1 <0>         0.4015
     38 H16        -9.1616   -3.5716    0.4956 H         1 <0>         0.4071
     39 H17         4.0606   -1.1589   -0.0440 H         1 <0>         0.5055
     40 H18         3.9034    2.9188   -0.0201 H         1 <0>         0.5051
@<TRIPOS>BOND
     1    1   10 ar
     2    1    2 ar
     3    1   23 1
     4    2    3 ar
     5    2   24 1
     6    3    8 ar
     7    3    4 2
     8    4    5 am
     9    4   40 1
    10    5    6 2
    11    5    7 am
    12    7    8 2
    13    7   39 1
    14    8    9 ar
    15    9   10 ar
    16    9   25 1
    17   10   11 1
    18   11   12 2
    19   11   13 1
    20   13   14 1
    21   13   26 1
    22   13   27 1
    23   14   19 1
    24   14   15 1
    25   15   16 1
    26   15   28 1
    27   15   29 1
    28   16   17 1
    29   16   30 1
    30   16   31 1
    31   17   18 1
    32   17   20 1
    33   17   32 1
    34   18   19 1
    35   18   33 1
    36   18   34 1
    37   19   35 1
    38   19   36 1
    39   20   21 2
    40   20   22 am
    41   22   37 1
    42   22   38 1
