@<TRIPOS>MOLECULE
ZINC04406008
   43    46     0     0     0
SMALL
USER_CHARGES
4-[(1-amino-4-phenyl-imidazol-2-yl)sulfanylmethyl]-7-methyl-chromen-2-one
@<TRIPOS>ATOM
      1 C1         -2.5549    3.8528    0.0470 C.3       1 <0>        -0.1227
      2 C2         -1.2310    3.1331    0.0306 C.ar      1 <0>        -0.0249
      3 C3         -1.2036    1.7459    0.0172 C.ar      1 <0>        -0.1390
      4 C4         -0.0126    1.0758    0.0080 C.ar      1 <0>        -0.0477
      5 C5          1.1870    1.7943    0.0004 C.ar      1 <0>        -0.1559
      6 C6          2.4811    1.1054   -0.0157 C.2       1 <0>         0.0368
      7 C7          3.6088    1.8603   -0.0238 C.2       1 <0>        -0.2239
      8 C8          3.5105    3.2687   -0.0157 C.2       1 <0>         0.5112
      9 O1          4.5299    3.9347   -0.0231 O.2       1 <0>        -0.4560
     10 O2          2.3222    3.8921   -0.0006 O.3       1 <0>        -0.2690
     11 C9          1.1632    3.1999    0.0077 C.ar      1 <0>         0.1546
     12 C10        -0.0590    3.8600    0.0228 C.ar      1 <0>        -0.1370
     13 C11         2.5568   -0.3997   -0.0235 C.3       1 <0>        -0.0867
     14 S1          2.5703   -0.9942   -1.7330 S.3       1 <0>         0.0418
     15 C12         2.6605   -2.7313   -1.4521 C.2       1 <0>         0.2210
     16 N1          2.7008   -3.3144   -0.2782 N.2       1 <0>        -0.4730
     17 C13         2.7670   -4.6582   -0.4516 C.2       1 <0>         0.0656
     18 C14         2.7672   -4.9074   -1.7846 C.2       1 <0>        -0.0608
     19 N2          2.6940   -3.6906   -2.4181 N.pl3     1 <0>        -0.2891
     20 N3          2.6635   -3.4814   -3.7676 N.3       1 <0>        -0.5927
     21 C15         2.8275   -5.6753    0.6264 C.ar      1 <0>        -0.0071
     22 C16         2.8867   -7.0306    0.3068 C.ar      1 <0>        -0.1098
     23 C17         2.9472   -7.9723    1.3139 C.ar      1 <0>        -0.1180
     24 C18         2.9391   -7.5737    2.6385 C.ar      1 <0>        -0.1174
     25 C19         2.8756   -6.2302    2.9616 C.ar      1 <0>        -0.1191
     26 C20         2.8196   -5.2795    1.9628 C.ar      1 <0>        -0.0927
     27 H1         -2.8841    4.0315   -0.9766 H         1 <0>         0.0817
     28 H2         -3.2942    3.2419    0.5650 H         1 <0>         0.0758
     29 H3         -2.4441    4.8057    0.5646 H         1 <0>         0.0748
     30 H4         -2.1304    1.1915    0.0186 H         1 <0>         0.1367
     31 H5          0.0021   -0.0041    0.0020 H         1 <0>         0.1390
     32 H6          4.5786    1.3851   -0.0359 H         1 <0>         0.1686
     33 H7         -0.0913    4.9395    0.0289 H         1 <0>         0.1456
     34 H8          3.4690   -0.7202    0.4798 H         1 <0>         0.1209
     35 H9          1.6914   -0.8097    0.4970 H         1 <0>         0.1187
     36 H10         2.8113   -5.8773   -2.2576 H         1 <0>         0.1844
     37 H11         3.5961   -3.3790   -4.1389 H         1 <0>         0.3654
     38 H12         2.1667   -4.2235   -4.2374 H         1 <0>         0.3765
     39 H13         2.8886   -7.3431   -0.7270 H         1 <0>         0.1204
     40 H14         2.9965   -9.0226    1.0674 H         1 <0>         0.1251
     41 H15         2.9828   -8.3143    3.4234 H         1 <0>         0.1233
     42 H16         2.8696   -5.9246    3.9975 H         1 <0>         0.1250
     43 H17         2.7701   -4.2308    2.2162 H         1 <0>         0.1293
@<TRIPOS>BOND
     1    1    2 1
     2    1   27 1
     3    1   28 1
     4    1   29 1
     5    2   12 ar
     6    2    3 ar
     7    3    4 ar
     8    3   30 1
     9    4    5 ar
    10    4   31 1
    11    5   11 ar
    12    5    6 1
    13    6    7 2
    14    6   13 1
    15    7    8 1
    16    7   32 1
    17    8    9 2
    18    8   10 1
    19   10   11 1
    20   11   12 ar
    21   12   33 1
    22   13   14 1
    23   13   34 1
    24   13   35 1
    25   14   15 1
    26   15   19 1
    27   15   16 2
    28   16   17 1
    29   17   18 2
    30   17   21 1
    31   18   19 1
    32   18   36 1
    33   19   20 1
    34   20   37 1
    35   20   38 1
    36   21   26 ar
    37   21   22 ar
    38   22   23 ar
    39   22   39 1
    40   23   24 ar
    41   23   40 1
    42   24   25 ar
    43   24   41 1
    44   25   26 ar
    45   25   42 1
    46   26   43 1
