@<TRIPOS>MOLECULE
ZINC49425937
   50    53     0     0     0
SMALL
USER_CHARGES

@<TRIPOS>ATOM
      1 C1         -0.0581    1.5062    0.0083 C.3       1 <0>        -0.1135
      2 C2         -0.0321   -0.0006    0.0005 C.ar      1 <0>        -0.0665
      3 C3         -0.0235   -0.6953   -1.2005 C.ar      1 <0>        -0.1064
      4 C4          0.0001   -2.0649   -1.2355 C.ar      1 <0>        -0.0601
      5 C5          0.0164   -2.8181   -0.0387 C.ar      1 <0>         0.0950
      6 C6          0.0070   -2.0771    1.1651 C.ar      1 <0>        -0.1428
      7 C7         -0.0108   -0.7048    1.1903 C.ar      1 <0>        -0.0645
      8 S1          0.0331   -3.3570    2.3971 S.3       1 <0>         0.0040
      9 C8          0.0542   -4.7481    1.2752 C.2       1 <0>         0.3703
     10 N1          0.0404   -4.1611    0.1012 N.2       1 <0>        -0.5048
     11 N2          0.0784   -6.1016    1.5697 N.am      1 <0>        -0.6184
     12 C9          0.0914   -7.0081    0.5725 C.2       1 <0>         0.5172
     13 O1          0.0819   -6.6390   -0.5826 O.2       1 <0>        -0.4580
     14 C10         0.1178   -8.4805    0.8928 C.3       1 <0>        -0.1160
     15 H1          1.0133   -8.7113    1.4698 H         1 <0>         0.1118
     16 C11         0.1266   -9.2862   -0.4082 C.3       1 <0>        -0.1016
     17 C12         0.1865  -10.7808   -0.0843 C.3       1 <0>        -0.1344
     18 C13        -1.0561  -11.1750    0.7202 C.3       1 <0>         0.1076
     19 N3         -1.1511  -10.3051    1.9004 N.am      1 <0>        -0.6263
     20 C14        -1.1252   -8.8485    1.7090 C.3       1 <0>         0.1373
     21 C15        -1.2598  -10.8330    3.1357 C.2       1 <0>         0.7122
     22 O2         -1.2419  -10.1070    4.1108 O.2       1 <0>        -0.5847
     23 N4         -1.3885  -12.1657    3.2900 N.am      1 <0>        -0.7426
     24 C16        -1.6161  -12.7302    4.6226 C.3       1 <0>         0.2254
     25 C17        -1.7233  -14.2300    4.5212 C.2       1 <0>        -0.1773
     26 C18        -0.7449  -15.1637    4.6114 C.2       1 <0>        -0.1292
     27 C19        -1.0792  -16.4991    4.4868 C.2       1 <0>        -0.1643
     28 C20        -2.3756  -16.8355    4.2782 C.2       1 <0>        -0.1615
     29 S2         -3.1730  -15.2384    4.2590 S.3       1 <0>         0.0528
     30 H2          0.9631    1.8872    0.0023 H         1 <0>         0.0762
     31 H3         -0.5850    1.8650   -0.8759 H         1 <0>         0.0725
     32 H4         -0.5713    1.8561    0.9040 H         1 <0>         0.0705
     33 H5         -0.0359   -0.1439   -2.1291 H         1 <0>         0.1351
     34 H6          0.0058   -2.5748   -2.1876 H         1 <0>         0.1347
     35 H7         -0.0127   -0.1786    2.1334 H         1 <0>         0.1339
     36 H8          0.0860   -6.3969    2.4937 H         1 <0>         0.4309
     37 H9         -0.7807   -9.0733   -0.9734 H         1 <0>         0.0777
     38 H10         0.9976   -9.0081   -1.0017 H         1 <0>         0.0800
     39 H11         0.2164  -11.3531   -1.0114 H         1 <0>         0.0861
     40 H12         1.0811  -10.9903    0.5021 H         1 <0>         0.0714
     41 H13        -1.9457  -11.0513    0.1025 H         1 <0>         0.0763
     42 H14        -0.9711  -12.2141    1.0381 H         1 <0>         0.0800
     43 H15        -1.0855   -8.3526    2.6789 H         1 <0>         0.1013
     44 H16        -2.0207   -8.5349    1.1725 H         1 <0>         0.0771
     45 H17        -1.3303  -12.7511    2.5187 H         1 <0>         0.3991
     46 H18        -0.7831  -12.4688    5.2751 H         1 <0>         0.0923
     47 H19        -2.5410  -12.3269    5.0348 H         1 <0>         0.0833
     48 H20         0.2807  -14.8687    4.7777 H         1 <0>         0.1359
     49 H21        -0.3188  -17.2631    4.5544 H         1 <0>         0.1368
     50 H22        -2.8131  -17.8157    4.1587 H         1 <0>         0.1881
@<TRIPOS>BOND
     1    1    2 1
     2    1   30 1
     3    1   31 1
     4    1   32 1
     5    2    7 ar
     6    2    3 ar
     7    3    4 ar
     8    3   33 1
     9    4    5 ar
    10    4   34 1
    11    5   10 1
    12    5    6 ar
    13    6    7 ar
    14    6    8 1
    15    7   35 1
    16    8    9 1
    17    9   10 2
    18    9   11 1
    19   11   12 am
    20   11   36 1
    21   12   13 2
    22   12   14 1
    23   14   15 1
    24   14   20 1
    25   14   16 1
    26   16   17 1
    27   16   37 1
    28   16   38 1
    29   17   18 1
    30   17   39 1
    31   17   40 1
    32   18   19 1
    33   18   41 1
    34   18   42 1
    35   19   20 1
    36   19   21 am
    37   20   43 1
    38   20   44 1
    39   21   22 2
    40   21   23 am
    41   23   24 1
    42   23   45 1
    43   24   25 1
    44   24   46 1
    45   24   47 1
    46   25   29 1
    47   25   26 2
    48   26   27 1
    49   26   48 1
    50   27   28 2
    51   27   49 1
    52   28   29 1
    53   28   50 1
