@<TRIPOS>MOLECULE
ZINC19770191
   65    68     0     0     0
SMALL
USER_CHARGES
isopropyl (4R,7S)-7-(4-chlorophenyl)-4-(2,3-dimethoxyphenyl)-2-methyl-5-oxo-4,6,7,8-tetrahydro-1H-quinoline-3-carboxylate
@<TRIPOS>ATOM
      1 C1          5.5470   -1.0997   -3.3798 C.3       1 <0>        -0.1310
      2 C2          4.5946   -0.6854   -2.2879 C.2       1 <0>         0.1824
      3 C3          4.8627    0.4027   -1.5455 C.2       1 <0>        -0.2185
      4 C4          3.9425    0.8398   -0.4438 C.3       1 <0>         0.0897
      5 H1          3.8311    1.9327   -0.5009 H         1 <0>         0.0967
      6 C5          2.5816    0.2072   -0.5920 C.2       1 <0>        -0.2841
      7 C6          2.4068   -0.8760   -1.3784 C.2       1 <0>         0.2283
      8 N1          3.4637   -1.4183   -2.0592 N.pl3     1 <0>        -0.6448
      9 C7          1.0483   -1.5140   -1.5317 C.3       1 <0>        -0.0897
     10 C8          0.2426   -1.3220   -0.2448 C.3       1 <0>        -0.0364
     11 H2          0.7334   -1.8340    0.5960 H         1 <0>         0.0963
     12 C9          0.1247    0.1799    0.0349 C.3       1 <0>        -0.1601
     13 C10         1.5051    0.7729    0.1134 C.2       1 <0>         0.4065
     14 O1          1.6929    1.7588    0.7984 O.2       1 <0>        -0.4666
     15 C11        -1.1324   -1.9149   -0.4150 C.ar      1 <0>        -0.0781
     16 C12        -1.9659   -1.4508   -1.4155 C.ar      1 <0>        -0.1015
     17 C13        -3.2250   -1.9981   -1.5756 C.ar      1 <0>        -0.1067
     18 C14        -3.6552   -3.0028   -0.7273 C.ar      1 <0>        -0.0346
     19 C15        -2.8227   -3.4629    0.2774 C.ar      1 <0>        -0.1071
     20 C16        -1.5618   -2.9187    0.4330 C.ar      1 <0>        -0.0979
     21 Cl1        -5.2394   -3.6853   -0.9229 Cl        1 <0>        -0.0674
     22 C17         4.5332    0.4377    0.8830 C.ar      1 <0>        -0.0450
     23 C18         4.5376   -0.8918    1.2634 C.ar      1 <0>        -0.1279
     24 C19         5.0794   -1.2641    2.4791 C.ar      1 <0>        -0.0874
     25 C20         5.6191   -0.3087    3.3207 C.ar      1 <0>        -0.2001
     26 C21         5.6174    1.0248    2.9459 C.ar      1 <0>         0.1072
     27 C22         5.0769    1.3991    1.7190 C.ar      1 <0>         0.0826
     28 O2          5.0781    2.7063    1.3441 O.3       1 <0>        -0.3259
     29 C23         4.0089    3.5212    1.8288 C.3       1 <0>         0.0209
     30 O3          6.1482    1.9656    3.7722 O.3       1 <0>        -0.3072
     31 C24         6.6908    1.5080    5.0124 C.3       1 <0>         0.0223
     32 C25         6.0349    1.1496   -1.8075 C.2       1 <0>         0.5380
     33 O4          5.9719    2.1684   -2.4698 O.2       1 <0>        -0.4994
     34 O5          7.2233    0.7323   -1.3229 O.3       1 <0>        -0.3435
     35 C26         8.3657    1.5353   -1.6262 C.3       1 <0>         0.0757
     36 C27         9.3889    1.4144   -0.4951 C.3       1 <0>        -0.1488
     37 C28         8.9939    1.0545   -2.9358 C.3       1 <0>        -0.1714
     38 H3          6.3922   -0.3966   -3.4153 H         1 <0>         0.0823
     39 H4          5.0223   -1.0915   -4.3466 H         1 <0>         0.0876
     40 H5          5.9216   -2.1134   -3.1745 H         1 <0>         0.0897
     41 H6          3.3966   -2.4541   -2.4233 H         1 <0>         0.4445
     42 H7          0.5147   -1.0433   -2.3706 H         1 <0>         0.1053
     43 H8          1.1685   -2.5892   -1.7307 H         1 <0>         0.0951
     44 H9         -0.4402    0.6609   -0.7773 H         1 <0>         0.1038
     45 H10        -0.4007    0.3351    0.9888 H         1 <0>         0.1012
     46 H11        -1.6316   -0.6635   -2.0748 H         1 <0>         0.1327
     47 H12        -3.8744   -1.6385   -2.3600 H         1 <0>         0.1349
     48 H13        -3.1579   -4.2473    0.9397 H         1 <0>         0.1350
     49 H14        -0.9119   -3.2775    1.2174 H         1 <0>         0.1338
     50 H15         4.1170   -1.6409    0.6089 H         1 <0>         0.1195
     51 H16         5.0809   -2.3034    2.7727 H         1 <0>         0.1251
     52 H17         6.0415   -0.6022    4.2704 H         1 <0>         0.1300
     53 H18         4.1310    4.5478    1.4531 H         1 <0>         0.0870
     54 H19         4.0235    3.5291    2.9287 H         1 <0>         0.0414
     55 H20         3.0493    3.1139    1.4777 H         1 <0>         0.0761
     56 H21         7.0837    2.3650    5.5792 H         1 <0>         0.1019
     57 H22         7.5045    0.7945    4.8156 H         1 <0>         0.0562
     58 H23         5.9019    1.0123    5.5971 H         1 <0>         0.0551
     59 H24         7.9923    2.5659   -1.7178 H         1 <0>         0.0845
     60 H25        10.2683    2.0326   -0.7286 H         1 <0>         0.0775
     61 H26         9.6968    0.3636   -0.3900 H         1 <0>         0.0665
     62 H27         8.9372    1.7601    0.4464 H         1 <0>         0.0662
     63 H28         9.8733    1.6727   -3.1693 H         1 <0>         0.0758
     64 H29         8.2582    1.1415   -3.7490 H         1 <0>         0.0594
     65 H30         9.3018    0.0037   -2.8307 H         1 <0>         0.0667
@<TRIPOS>BOND
     1    1    2 1
     2    1   38 1
     3    1   39 1
     4    1   40 1
     5    2    8 1
     6    2    3 2
     7    3    4 1
     8    3   32 1
     9    4    5 1
    10    4    6 1
    11    4   22 1
    12    6   13 1
    13    6    7 2
    14    7    8 1
    15    7    9 1
    16    8   41 1
    17    9   10 1
    18    9   42 1
    19    9   43 1
    20   10   11 1
    21   10   12 1
    22   10   15 1
    23   12   13 1
    24   12   44 1
    25   12   45 1
    26   13   14 2
    27   15   20 ar
    28   15   16 ar
    29   16   17 ar
    30   16   46 1
    31   17   18 ar
    32   17   47 1
    33   18   19 ar
    34   18   21 1
    35   19   20 ar
    36   19   48 1
    37   20   49 1
    38   22   27 ar
    39   22   23 ar
    40   23   24 ar
    41   23   50 1
    42   24   25 ar
    43   24   51 1
    44   25   26 ar
    45   25   52 1
    46   26   27 ar
    47   26   30 1
    48   27   28 1
    49   28   29 1
    50   29   53 1
    51   29   54 1
    52   29   55 1
    53   30   31 1
    54   31   56 1
    55   31   57 1
    56   31   58 1
    57   32   33 2
    58   32   34 1
    59   34   35 1
    60   35   36 1
    61   35   37 1
    62   35   59 1
    63   36   60 1
    64   36   61 1
    65   36   62 1
    66   37   63 1
    67   37   64 1
    68   37   65 1
