@<TRIPOS>MOLECULE
ZINC12358944
   48    50     0     0     0
SMALL
USER_CHARGES
(2R,3R,4S,5R,6S)-6-[(5-bromo-4-chloro-1H-indol-3-yl)oxy]-3,4,5-trihydroxy-3,4,5,6-tetramethyl-tetrahydropyran-2-carboxylic acid
@<TRIPOS>ATOM
      1 C1          4.2805    0.2695    3.9011 C.3       1 <0>        -0.1910
      2 C2          3.8313   -0.3265    2.5654 C.3       1 <0>         0.1050
      3 C3          2.3392   -0.0530    2.3592 C.3       1 <0>         0.0352
      4 H1          2.1578    1.0212    2.3974 H         1 <0>         0.0706
      5 O1          1.9347   -0.5596    1.0855 O.3       1 <0>        -0.3432
      6 C4          2.6082    0.0421   -0.0220 C.3       1 <0>         0.2401
      7 C5          4.1111   -0.2276    0.0885 C.3       1 <0>         0.1540
      8 C6          4.6232    0.3195    1.4244 C.3       1 <0>         0.1617
      9 C7          6.1083   -0.0148    1.5789 C.3       1 <0>        -0.1663
     10 O2          4.4461    1.7370    1.4599 O.3       1 <0>        -0.5262
     11 C8          4.8411    0.4663   -1.0632 C.3       1 <0>        -0.1742
     12 O3          4.3496   -1.6352    0.0260 O.3       1 <0>        -0.5096
     13 C9          2.0774   -0.5543   -1.3272 C.3       1 <0>        -0.1801
     14 O4          2.3751    1.4519   -0.0128 O.3       1 <0>        -0.2699
     15 C10         1.0768    1.8640    0.0018 C.2       1 <0>         0.0639
     16 C11        -0.0126    1.0758    0.0080 C.2       1 <0>        -0.0236
     17 N1         -1.1481    1.8512    0.0170 N.pl3     1 <0>        -0.5776
     18 H2         -2.0561    1.5101    0.0192 H         1 <0>         0.4221
     19 C12        -0.8033    3.1845    0.0254 C.ar      1 <0>         0.1358
     20 C13         0.6018    3.2517    0.0129 C.ar      1 <0>        -0.1016
     21 C14         1.2404    4.4941    0.0131 C.ar      1 <0>         0.0583
     22 C15         0.4864    5.6479    0.0255 C.ar      1 <0>        -0.1303
     23 C16        -0.9006    5.5797    0.0379 C.ar      1 <0>        -0.0619
     24 C17        -1.5443    4.3619    0.0375 C.ar      1 <0>        -0.1265
     25 Br1         1.3453    7.3326    0.0265 Br        1 <0>        -0.0427
     26 Cl1         2.9740    4.5845   -0.0018 Cl        1 <0>        -0.0267
     27 C18         1.5484   -0.7351    3.4457 C.2       1 <0>         0.4729
     28 O5          0.7880   -1.6319    3.1672 O.co2     1 <0>        -0.6133
     29 O6          4.0623   -1.7367    2.5685 O.3       1 <0>        -0.5328
     30 H3          4.1010    1.3446    3.8980 H         1 <0>         0.0554
     31 H4          3.7165   -0.1908    4.7123 H         1 <0>         0.1061
     32 H5          5.3442    0.0791    4.0444 H         1 <0>         0.0499
     33 H6          6.6697    0.4389    0.7621 H         1 <0>         0.0568
     34 H7          6.4715    0.3750    2.5298 H         1 <0>         0.0563
     35 H8          6.2417   -1.0963    1.5548 H         1 <0>         0.0816
     36 H9          4.7496    2.1509    2.2795 H         1 <0>         0.3740
     37 H10         4.6605    1.5400   -1.0135 H         1 <0>         0.0853
     38 H11         5.9110    0.2737   -0.9837 H         1 <0>         0.0647
     39 H12         4.4719    0.0794   -2.0130 H         1 <0>         0.0556
     40 H13         4.0452   -2.0497   -0.7930 H         1 <0>         0.3678
     41 H14         2.5915   -0.0956   -2.1718 H         1 <0>         0.0806
     42 H15         2.2553   -1.6297   -1.3341 H         1 <0>         0.0790
     43 H16         1.0073   -0.3626   -1.4055 H         1 <0>         0.0771
     44 H17         0.0021   -0.0041    0.0020 H         1 <0>         0.1866
     45 H18        -1.4805    6.4908    0.0477 H         1 <0>         0.1408
     46 H19        -2.6234    4.3211    0.0468 H         1 <0>         0.1346
     47 H20         3.5907   -2.2110    3.2668 H         1 <0>         0.3749
     48 O7          1.6887   -0.3464    4.7228 O.co2     1 <0>        -0.7493
@<TRIPOS>BOND
     1    1    2 1
     2    1   30 1
     3    1   31 1
     4    1   32 1
     5    2    8 1
     6    2    3 1
     7    2   29 1
     8    3    4 1
     9    3    5 1
    10    3   27 1
    11    5    6 1
    12    6    7 1
    13    6   13 1
    14    6   14 1
    15    7    8 1
    16    7   11 1
    17    7   12 1
    18    8    9 1
    19    8   10 1
    20    9   33 1
    21    9   34 1
    22    9   35 1
    23   10   36 1
    24   11   37 1
    25   11   38 1
    26   11   39 1
    27   12   40 1
    28   13   41 1
    29   13   42 1
    30   13   43 1
    31   14   15 1
    32   15   20 1
    33   15   16 2
    34   16   17 1
    35   16   44 1
    36   17   18 1
    37   17   19 1
    38   19   24 ar
    39   19   20 ar
    40   20   21 ar
    41   21   22 ar
    42   21   26 1
    43   22   23 ar
    44   22   25 1
    45   23   24 ar
    46   23   45 1
    47   24   46 1
    48   27   28 2
    49   27   48 1
    50   29   47 1
