@<TRIPOS>MOLECULE
ZINC63486394
   65    68     0     0     0
SMALL
USER_CHARGES

@<TRIPOS>ATOM
      1 C1         -0.0187    1.5258    0.0104 C.3       1 <0>        -0.1521
      2 C2          0.0021   -0.0041    0.0020 C.3       1 <0>        -0.0398
      3 H1         -1.0209   -0.3802    0.0098 H         1 <0>         0.1043
      4 C3          0.7048   -0.4888   -1.2410 C.ar      1 <0>        -0.1786
      5 C4          0.4743    0.1816   -2.4329 C.ar      1 <0>        -0.0318
      6 C5          1.0896   -0.2306   -3.5978 C.ar      1 <0>        -0.0852
      7 C6          1.9456   -1.3242   -3.5799 C.ar      1 <0>         0.1798
      8 C7          2.1804   -1.9938   -2.3914 C.ar      1 <0>        -0.2153
      9 C8          1.5624   -1.5744   -1.2185 C.ar      1 <0>         0.1694
     10 O1          1.8359   -2.2493   -0.0683 O.3       1 <0>        -0.2972
     11 C9          1.0830   -1.9674    1.0136 C.2       1 <0>         0.4926
     12 O2          0.7015   -2.8355    1.7625 O.2       1 <0>        -0.4060
     13 C10         0.7398   -0.5099    1.2454 C.3       1 <0>        -0.1121
     14 H2          0.0964   -0.4174    2.1204 H         1 <0>         0.1307
     15 C11         2.0212    0.2995    1.4540 C.3       1 <0>        -0.1397
     16 C12         2.6765   -0.1209    2.7443 C.2       1 <0>         0.5102
     17 O3          2.1686   -0.9831    3.4296 O.2       1 <0>        -0.5158
     18 N1          3.8270    0.4612    3.1367 N.am      1 <0>        -0.7348
     19 C13         4.4641    0.0525    4.3911 C.3       1 <0>         0.1247
     20 C14         5.7456    0.8620    4.5996 C.3       1 <0>        -0.1012
     21 C15         6.4009    0.4415    5.8899 C.2       1 <0>         0.0524
     22 C16         7.3879   -0.4703    6.0409 C.ar      1 <0>        -0.1254
     23 C17         8.1193   -1.3124    5.0882 C.ar      1 <0>        -0.0967
     24 C18         9.0799   -2.1532    5.5415 C.ar      1 <0>         0.1058
     25 C19         9.4080   -2.2523    6.9050 C.ar      1 <0>        -0.0258
     26 C20         8.7910   -1.5194    7.8564 C.ar      1 <0>        -0.1561
     27 C21         7.7346   -0.5757    7.4772 C.ar      1 <0>         0.3150
     28 N2          6.9918    0.2382    8.1850 N.pl3     1 <0>        -0.5689
     29 C22         6.0921    0.9589    7.2772 C.3       1 <0>         0.0605
     30 O4          9.7491   -2.9279    4.6475 O.3       1 <0>        -0.3015
     31 C23        10.7539   -3.7999    5.1690 C.3       1 <0>         0.0144
     32 O5          2.5504   -1.7356   -4.7255 O.3       1 <0>        -0.2906
     33 C24         3.4177   -2.8674   -4.6309 C.3       1 <0>         0.0930
     34 C25         3.9927   -3.1747   -5.9896 C.2       1 <0>        -0.1505
     35 C26         3.6654   -2.4369   -7.0214 C.2       1 <0>        -0.1623
     36 C27         4.9442   -4.3306   -6.1613 C.3       1 <0>        -0.1136
     37 Cl1         0.7934    0.6167   -5.0837 Cl        1 <0>        -0.0409
     38 H3          1.0039    1.9031    0.0027 H         1 <0>         0.0677
     39 H4         -0.5459    1.8868   -0.8726 H         1 <0>         0.0733
     40 H5         -0.5289    1.8773    0.9072 H         1 <0>         0.0713
     41 H6         -0.1915    1.0318   -2.4499 H         1 <0>         0.1535
     42 H7          2.8453   -2.8448   -2.3751 H         1 <0>         0.1514
     43 H8          2.7042    0.1189    0.6239 H         1 <0>         0.1062
     44 H9          1.7772    1.3609    1.4994 H         1 <0>         0.1255
     45 H10         4.2333    1.1508    2.5886 H         1 <0>         0.4072
     46 H11         3.7811    0.2331    5.2211 H         1 <0>         0.0786
     47 H12         4.7081   -1.0089    4.3457 H         1 <0>         0.0793
     48 H13         6.4285    0.6814    3.7696 H         1 <0>         0.1162
     49 H14         5.5015    1.9233    4.6450 H         1 <0>         0.1181
     50 H15         7.8934   -1.2628    4.0332 H         1 <0>         0.1643
     51 H16        10.1839   -2.9419    7.2030 H         1 <0>         0.1681
     52 H17         9.0744   -1.6279    8.8929 H         1 <0>         0.1703
     53 H18         6.2819    2.0310    7.3292 H         1 <0>         0.1786
     54 H19         5.0542    0.7476    7.5345 H         1 <0>         0.1775
     55 H20        11.5183   -3.2112    5.6763 H         1 <0>         0.0649
     56 H21        10.3008   -4.4942    5.8767 H         1 <0>         0.0650
     57 H22        11.2091   -4.3595    4.3519 H         1 <0>         0.1175
     58 H23         4.2273   -2.6476   -3.9350 H         1 <0>         0.0772
     59 H24         2.8537   -3.7283   -4.2719 H         1 <0>         0.0785
     60 H25         4.0775   -2.6571   -7.9951 H         1 <0>         0.1031
     61 H26         2.9834   -1.6085   -6.8984 H         1 <0>         0.1111
     62 H27         5.0955   -4.8224   -5.2004 H         1 <0>         0.0622
     63 H28         4.5259   -5.0430   -6.8723 H         1 <0>         0.0729
     64 H29         5.8995   -3.9623   -6.5353 H         1 <0>         0.0721
     65 H30         7.0324    0.3490    9.1478 H         1 <0>         0.4576
@<TRIPOS>BOND
     1    1    2 1
     2    1   38 1
     3    1   39 1
     4    1   40 1
     5    2    3 1
     6    2   13 1
     7    2    4 1
     8    4    9 ar
     9    4    5 ar
    10    5    6 ar
    11    5   41 1
    12    6    7 ar
    13    6   37 1
    14    7    8 ar
    15    7   32 1
    16    8    9 ar
    17    8   42 1
    18    9   10 1
    19   10   11 1
    20   11   12 2
    21   11   13 1
    22   13   14 1
    23   13   15 1
    24   15   16 1
    25   15   43 1
    26   15   44 1
    27   16   17 2
    28   16   18 am
    29   18   19 1
    30   18   45 1
    31   19   20 1
    32   19   46 1
    33   19   47 1
    34   20   21 1
    35   20   48 1
    36   20   49 1
    37   21   29 1
    38   21   22 2
    39   22   27 ar
    40   22   23 ar
    41   23   24 ar
    42   23   50 1
    43   24   25 ar
    44   24   30 1
    45   25   26 ar
    46   25   51 1
    47   26   27 ar
    48   26   52 1
    49   27   28 2
    50   28   29 1
    51   28   65 1
    52   29   53 1
    53   29   54 1
    54   30   31 1
    55   31   55 1
    56   31   56 1
    57   31   57 1
    58   32   33 1
    59   33   34 1
    60   33   58 1
    61   33   59 1
    62   34   35 2
    63   34   36 1
    64   35   60 1
    65   35   61 1
    66   36   62 1
    67   36   63 1
    68   36   64 1
