@<TRIPOS>MOLECULE
ZINC20207250
   49    51     0     0     0
SMALL
USER_CHARGES
5-[4-(aminomethyl)-1-piperidyl]-2-[[(2S)-tetrahydropyran-2-yl]methyl]pyridazin-3-one
@<TRIPOS>ATOM
      1 C1          2.3964    1.3506   -0.0135 C.2       1 <0>        -0.2483
      2 C2          1.1924    2.0299    0.0016 C.2       1 <0>         0.1435
      3 C3         -0.0156    1.2991    0.0092 C.2       1 <0>         0.0623
      4 N1          0.0021   -0.0041    0.0020 N.2       1 <0>        -0.1699
      5 N2          1.2104   -0.7084   -0.0133 N.am      1 <0>        -0.4058
      6 C4          2.3867   -0.0509   -0.0210 C.2       1 <0>         0.5090
      7 O1          3.4380   -0.6726   -0.0339 O.2       1 <0>        -0.5398
      8 C5          1.1972   -2.1733   -0.0205 C.3       1 <0>         0.1300
      9 C6          1.2066   -2.6905    1.4194 C.3       1 <0>         0.0781
     10 H1          2.0203   -2.2330    2.0013 H         1 <0>         0.0611
     11 C7          1.3171   -4.2175    1.4126 C.3       1 <0>        -0.1475
     12 C8          1.2653   -4.7317    2.8546 C.3       1 <0>        -0.1232
     13 C9         -0.0299   -4.2455    3.5122 C.3       1 <0>        -0.1585
     14 C10        -0.0884   -2.7175    3.4378 C.3       1 <0>         0.0612
     15 O2         -0.0047   -2.3049    2.0722 O.3       1 <0>        -0.3752
     16 N3          1.1714    3.4133    0.0087 N.pl3     1 <0>        -0.4799
     17 C11         2.5314    3.9598    0.0994 C.3       1 <0>         0.0419
     18 C12         2.4622    5.4810    0.2514 C.3       1 <0>        -0.1281
     19 C13         1.7321    6.0770   -0.9554 C.3       1 <0>        -0.1203
     20 C14         0.3362    5.4556   -1.0553 C.3       1 <0>        -0.1131
     21 C15         0.4670    3.9351   -1.1694 C.3       1 <0>         0.0510
     22 C16         1.6061    7.5916   -0.7800 C.3       1 <0>         0.0021
     23 N4          2.9429    8.2002   -0.8042 N.4       1 <0>        -0.6889
     24 H2          3.3309    1.8920   -0.0192 H         1 <0>         0.1589
     25 H3         -0.9599    1.8231    0.0165 H         1 <0>         0.1938
     26 H4          0.2908   -2.5293   -0.5321 H         1 <0>         0.1082
     27 H5          2.0869   -2.5454   -0.5496 H         1 <0>         0.1191
     28 H6          0.4810   -4.6431    0.8383 H         1 <0>         0.0793
     29 H7          2.2692   -4.5142    0.9485 H         1 <0>         0.0794
     30 H8          1.2899   -5.8314    2.8528 H         1 <0>         0.0737
     31 H9          2.1315   -4.3465    3.4126 H         1 <0>         0.0641
     32 H10        -0.8934   -4.6745    2.9827 H         1 <0>         0.0746
     33 H11        -0.0493   -4.5652    4.5645 H         1 <0>         0.0757
     34 H12        -1.0365   -2.3654    3.8703 H         1 <0>         0.0962
     35 H13         0.7533   -2.2904    4.0027 H         1 <0>         0.0461
     36 H14         3.0428    3.5275    0.9721 H         1 <0>         0.0987
     37 H15         3.0894    3.7081   -0.8145 H         1 <0>         0.0600
     38 H16         1.9171    5.7330    1.1730 H         1 <0>         0.0923
     39 H17         3.4816    5.8909    0.3046 H         1 <0>         0.0720
     40 H18         2.2991    5.8642   -1.8737 H         1 <0>         0.0947
     41 H19        -0.2432    5.7090   -0.1553 H         1 <0>         0.0897
     42 H20        -0.1775    5.8490   -1.9449 H         1 <0>         0.0894
     43 H21         1.0348    3.6835   -2.0773 H         1 <0>         0.0576
     44 H22        -0.5349    3.4847   -1.2269 H         1 <0>         0.1013
     45 H23         0.9995    8.0063   -1.5986 H         1 <0>         0.1317
     46 H24         1.1211    7.8102    0.1828 H         1 <0>         0.1315
     47 H25         2.8523    9.2892   -0.6781 H         1 <0>         0.4611
     48 H26         3.4279    7.9816   -1.7670 H         1 <0>         0.4560
     49 H27         3.5494    7.7855    0.0144 H         1 <0>         0.4532
@<TRIPOS>BOND
     1    1    6 1
     2    1    2 2
     3    1   24 1
     4    2    3 1
     5    2   16 1
     6    3    4 2
     7    3   25 1
     8    4    5 1
     9    5    6 am
    10    5    8 1
    11    6    7 2
    12    8    9 1
    13    8   26 1
    14    8   27 1
    15    9   10 1
    16    9   15 1
    17    9   11 1
    18   11   12 1
    19   11   28 1
    20   11   29 1
    21   12   13 1
    22   12   30 1
    23   12   31 1
    24   13   14 1
    25   13   32 1
    26   13   33 1
    27   14   15 1
    28   14   34 1
    29   14   35 1
    30   16   21 1
    31   16   17 1
    32   17   18 1
    33   17   36 1
    34   17   37 1
    35   18   19 1
    36   18   38 1
    37   18   39 1
    38   19   20 1
    39   19   22 1
    40   19   40 1
    41   20   21 1
    42   20   41 1
    43   20   42 1
    44   21   43 1
    45   21   44 1
    46   22   23 1
    47   22   45 1
    48   22   46 1
    49   23   47 1
    50   23   48 1
    51   23   49 1
