@<TRIPOS>MOLECULE
ZINC34925107
   38    40     0     0     0
SMALL
USER_CHARGES

@<TRIPOS>ATOM
      1 C1          1.0606    1.4052    0.0007 C.3       1 <0>        -0.0759
      2 C2          0.7687   -0.0732   -0.0048 C.2       1 <0>         0.0954
      3 C3          0.5909   -0.8690   -1.1433 C.2       1 <0>        -0.2537
      4 C4          0.3490   -2.1347   -0.7341 C.2       1 <0>         0.1155
      5 N1          0.3733   -2.1388    0.6255 N.pl3     1 <0>        -0.3196
      6 N2          0.6440   -0.8323    1.0525 N.2       1 <0>        -0.2550
      7 C5          0.1705   -3.2452    1.4466 C.ar      1 <0>         0.6777
      8 N3          0.2160   -3.1090    2.7662 N.ar      1 <0>        -0.6213
      9 C6          0.0220   -4.1647    3.5511 C.ar      1 <0>         0.6480
     10 N4         -0.2176   -5.3567    3.0138 N.ar      1 <0>        -0.6276
     11 C7         -0.2630   -5.4920    1.6926 C.ar      1 <0>         0.6563
     12 N5         -0.0737   -4.4339    0.9093 N.ar      1 <0>        -0.6460
     13 N6         -0.5117   -6.7291    1.1335 N.pl3     1 <0>        -0.5241
     14 N7         -0.7112   -7.8147    1.9383 N.3       1 <0>        -0.5866
     15 N8          0.0699   -4.0229    4.9244 N.pl3     1 <0>        -0.6230
     16 C8         -0.0166   -5.1505    5.7474 C.ar      1 <0>         0.1735
     17 C9          0.5985   -6.3369    5.3690 C.ar      1 <0>        -0.0954
     18 C10         0.5119   -7.4486    6.1838 C.ar      1 <0>        -0.0681
     19 C11        -0.1873   -7.3814    7.3759 C.ar      1 <0>        -0.1046
     20 C12        -0.8010   -6.2008    7.7554 C.ar      1 <0>        -0.0713
     21 C13        -0.7128   -5.0844    6.9473 C.ar      1 <0>        -0.1363
     22 Br1        -0.3047   -8.9061    8.4883 Br        1 <0>        -0.0508
     23 C14         0.0976   -3.3250   -1.6234 C.3       1 <0>        -0.0969
     24 H1          2.1389    1.5627   -0.0215 H         1 <0>         0.0837
     25 H2          0.6077    1.8682   -0.8760 H         1 <0>         0.0838
     26 H3          0.6463    1.8540    0.9035 H         1 <0>         0.0779
     27 H4          0.6382   -0.5311   -2.1680 H         1 <0>         0.1619
     28 H5         -0.5448   -6.8277    0.1691 H         1 <0>         0.4228
     29 H6         -1.4658   -7.6497    2.5875 H         1 <0>         0.3516
     30 H7         -0.8806   -8.6448    1.3904 H         1 <0>         0.3649
     31 H8          0.1635   -3.1412    5.3179 H         1 <0>         0.4308
     32 H9          1.1438   -6.3901    4.4383 H         1 <0>         0.1417
     33 H10         0.9900   -8.3714    5.8901 H         1 <0>         0.1366
     34 H11        -1.3461   -6.1512    8.6865 H         1 <0>         0.1371
     35 H12        -1.1887   -4.1620    7.2460 H         1 <0>         0.1352
     36 H13         1.0450   -3.8110   -1.8565 H         1 <0>         0.0822
     37 H14        -0.5560   -4.0304   -1.1102 H         1 <0>         0.0976
     38 H15        -0.3781   -2.9946   -2.5468 H         1 <0>         0.0820
@<TRIPOS>BOND
     1    1    2 1
     2    1   24 1
     3    1   25 1
     4    1   26 1
     5    2    6 2
     6    2    3 1
     7    3    4 2
     8    3   27 1
     9    4    5 1
    10    4   23 1
    11    5    6 1
    12    5    7 1
    13    7   12 ar
    14    7    8 ar
    15    8    9 ar
    16    9   10 ar
    17    9   15 1
    18   10   11 ar
    19   11   12 ar
    20   11   13 1
    21   13   14 1
    22   13   28 1
    23   14   29 1
    24   14   30 1
    25   15   16 1
    26   15   31 1
    27   16   21 ar
    28   16   17 ar
    29   17   18 ar
    30   17   32 1
    31   18   19 ar
    32   18   33 1
    33   19   20 ar
    34   19   22 1
    35   20   21 ar
    36   20   34 1
    37   21   35 1
    38   23   36 1
    39   23   37 1
    40   23   38 1
