@<TRIPOS>MOLECULE
ZINC66665742
   56    57     0     0     0
SMALL
USER_CHARGES

@<TRIPOS>ATOM
      1 C1          4.2858    2.0513   -0.8409 C.3       1 <0>        -0.1498
      2 C2          3.3752    0.8322   -0.6814 C.3       1 <0>        -0.0838
      3 H1          3.5831    0.1168   -1.4770 H         1 <0>         0.0716
      4 C3          1.9126    1.2741   -0.7623 C.3       1 <0>        -0.1186
      5 C4          1.0020    0.0550   -0.6028 C.3       1 <0>        -0.1174
      6 C5          1.2621   -0.6017    0.7544 C.3       1 <0>        -0.1281
      7 C6          2.7246   -1.0436    0.8353 C.3       1 <0>         0.1489
      8 H2          2.9326   -1.7590    0.0397 H         1 <0>         0.0862
      9 C7          3.6353    0.1755    0.6758 C.3       1 <0>        -0.0929
     10 H3          4.6772   -0.1393    0.7334 H         1 <0>         0.0756
     11 C8          3.3434    1.1797    1.7926 C.3       1 <0>        -0.1554
     12 N1          2.9736   -1.6724    2.1349 N.am      1 <0>        -0.7211
     13 C9          2.7032   -2.9806    2.3133 C.2       1 <0>         0.4876
     14 O1          2.2537   -3.6373    1.3981 O.2       1 <0>        -0.5369
     15 C10         2.9593   -3.6275    3.6501 C.3       1 <0>         0.0601
     16 H4          3.7898   -3.1235    4.1445 H         1 <0>         0.1087
     17 C11         1.7051   -3.5162    4.5192 C.3       1 <0>        -0.1431
     18 N2          3.2941   -5.0441    3.4525 N.3       1 <0>        -0.4963
     19 C12         2.1407   -5.7898    2.9233 C.3       1 <0>         0.0109
     20 C13         2.4342   -7.2876    3.0276 C.3       1 <0>         0.1148
     21 N3          3.7431   -7.5822    2.4515 N.am      1 <0>        -0.7192
     22 C14         4.6746   -6.6451    2.2462 C.2       1 <0>         0.5356
     23 O2          5.7472   -6.9818    1.7913 O.2       1 <0>        -0.5418
     24 C15         4.4480   -5.1923    2.5555 C.3       1 <0>         0.0639
     25 H5          4.2579   -4.6504    1.6290 H         1 <0>         0.0845
     26 C16         5.6939   -4.6166    3.2316 C.3       1 <0>        -0.0722
     27 C17         6.0255   -5.4412    4.4770 C.3       1 <0>        -0.1447
     28 C18         6.8725   -4.6679    2.2573 C.3       1 <0>        -0.1565
     29 H6          5.3278    1.7366   -0.7833 H         1 <0>         0.0550
     30 H7          4.1006    2.5192   -1.8078 H         1 <0>         0.0563
     31 H8          4.0779    2.7668   -0.0453 H         1 <0>         0.0590
     32 H9          1.7047    1.9895    0.0333 H         1 <0>         0.0669
     33 H10         1.7274    1.7419   -1.7292 H         1 <0>         0.0641
     34 H11        -0.0400    0.3698   -0.6604 H         1 <0>         0.0654
     35 H12         1.2099   -0.6605   -1.3984 H         1 <0>         0.0633
     36 H13         1.0541    0.1137    1.5501 H         1 <0>         0.0670
     37 H14         0.6133   -1.4702    0.8681 H         1 <0>         0.0649
     38 H15         2.3014    1.4945    1.7350 H         1 <0>         0.0655
     39 H16         3.5286    0.7119    2.7595 H         1 <0>         0.0502
     40 H17         3.9921    2.0483    1.6789 H         1 <0>         0.0638
     41 H18         3.3332   -1.1472    2.8669 H         1 <0>         0.3996
     42 H19         0.8476   -3.9071    3.9714 H         1 <0>         0.0659
     43 H20         1.8448   -4.0919    5.4342 H         1 <0>         0.0825
     44 H21         1.5293   -2.4704    4.7712 H         1 <0>         0.0689
     45 H22         1.2516   -5.5501    3.5065 H         1 <0>         0.0988
     46 H23         1.9792   -5.5208    1.8794 H         1 <0>         0.0850
     47 H24         2.4252   -7.5857    4.0760 H         1 <0>         0.0722
     48 H25         1.6681   -7.8446    2.4883 H         1 <0>         0.0809
     49 H26         3.9461   -8.4987    2.2071 H         1 <0>         0.4006
     50 H27         5.5058   -3.5825    3.5201 H         1 <0>         0.0717
     51 H28         5.1502   -5.4888    5.1249 H         1 <0>         0.0661
     52 H29         6.3123   -6.4498    4.1792 H         1 <0>         0.0551
     53 H30         6.8501   -4.9726    5.0141 H         1 <0>         0.0536
     54 H31         6.5719   -4.2409    1.3006 H         1 <0>         0.0467
     55 H32         7.7059   -4.0957    2.6648 H         1 <0>         0.0514
     56 H33         7.1794   -5.7038    2.1125 H         1 <0>         0.0892
@<TRIPOS>BOND
     1    1    2 1
     2    1   29 1
     3    1   30 1
     4    1   31 1
     5    2    3 1
     6    2    9 1
     7    2    4 1
     8    4    5 1
     9    4   32 1
    10    4   33 1
    11    5    6 1
    12    5   34 1
    13    5   35 1
    14    6    7 1
    15    6   36 1
    16    6   37 1
    17    7    8 1
    18    7    9 1
    19    7   12 1
    20    9   10 1
    21    9   11 1
    22   11   38 1
    23   11   39 1
    24   11   40 1
    25   12   13 am
    26   12   41 1
    27   13   14 2
    28   13   15 1
    29   15   16 1
    30   15   17 1
    31   15   18 1
    32   17   42 1
    33   17   43 1
    34   17   44 1
    35   18   24 1
    36   18   19 1
    37   19   20 1
    38   19   45 1
    39   19   46 1
    40   20   21 1
    41   20   47 1
    42   20   48 1
    43   21   22 am
    44   21   49 1
    45   22   23 2
    46   22   24 1
    47   24   25 1
    48   24   26 1
    49   26   27 1
    50   26   28 1
    51   26   50 1
    52   27   51 1
    53   27   52 1
    54   27   53 1
    55   28   54 1
    56   28   55 1
    57   28   56 1
