@<TRIPOS>MOLECULE
ZINC11726318
   69    72     0     0     0
SMALL
USER_CHARGES
methyl 2-[[4-[(4-methyl-1-piperidyl)sulfonyl]benzoyl]amino]-6-propyl-5,7-dihydro-4H-thieno[5,4-c]pyridine-3-carboxylate
@<TRIPOS>ATOM
      1 C1          4.4264    5.5532   -6.0166 C.3       1 <0>        -0.1562
      2 C2          3.7103    4.9417   -4.8107 C.3       1 <0>        -0.1510
      3 C3          4.1628    3.4913   -4.6304 C.3       1 <0>        -0.0051
      4 C4          2.0164    2.9757   -3.6344 C.3       1 <0>         0.0010
      5 C5          1.3293    2.0453   -2.6308 C.3       1 <0>        -0.0921
      6 C6          1.8793    2.3539   -1.2432 C.2       1 <0>        -0.0348
      7 C7          3.0365    3.0406   -1.1094 C.2       1 <0>        -0.3155
      8 S1          3.2852    3.1708    0.6369 S.3       1 <0>         0.3447
      9 C8          1.8722    2.3297    1.1845 C.2       1 <0>         0.1092
     10 C9          1.2435    1.9615    0.0007 C.2       1 <0>        -0.2147
     11 C10        -0.0144    1.2122    0.0087 C.2       1 <0>         0.5191
     12 O1          0.0021   -0.0041    0.0020 O.2       1 <0>        -0.4797
     13 O2         -1.1916    1.8707    0.0179 O.3       1 <0>        -0.3506
     14 C11        -2.3985    1.0634    0.0192 C.3       1 <0>         0.0291
     15 N1          1.4685    2.0827    2.4860 N.am      1 <0>        -0.6155
     16 C12         2.2155    2.5221    3.5182 C.2       1 <0>         0.5632
     17 O3          3.2436    3.1352    3.3068 O.2       1 <0>        -0.4798
     18 C13         1.7846    2.2584    4.9071 C.ar      1 <0>        -0.0936
     19 C14         0.6014    1.5596    5.1535 C.ar      1 <0>        -0.1032
     20 C15         0.2073    1.3132    6.4523 C.ar      1 <0>        -0.0230
     21 C16         0.9765    1.7657    7.5097 C.ar      1 <0>        -0.6437
     22 C17         2.1478    2.4631    7.2726 C.ar      1 <0>        -0.0222
     23 C18         2.5560    2.7121    5.9786 C.ar      1 <0>        -0.0665
     24 S2          0.4625    1.4519    9.1656 S.o2      1 <0>         2.6848
     25 O4         -0.3815    0.3096    9.1193 O.2       1 <0>        -0.9441
     26 O5          1.6325    1.5025    9.9705 O.2       1 <0>        -0.9427
     27 N2         -0.4886    2.7246    9.6325 N.pl3     1 <0>        -0.9934
     28 C19         0.1029    3.9027   10.2811 C.3       1 <0>         0.1151
     29 C20        -0.6264    4.1645   11.5976 C.3       1 <0>        -0.1296
     30 C21        -2.1289    4.2812   11.3315 C.3       1 <0>        -0.0914
     31 C22        -2.6480    2.9673   10.7427 C.3       1 <0>        -0.1291
     32 C23        -1.9409    2.6944    9.4115 C.3       1 <0>         0.1154
     33 C24        -2.8579    4.5746   12.6442 C.3       1 <0>        -0.1500
     34 C25         3.8945    3.5608   -2.2200 C.3       1 <0>         0.1051
     35 H1          4.1818    4.9823   -6.9123 H         1 <0>         0.0671
     36 H2          4.1041    6.5865   -6.1450 H         1 <0>         0.0772
     37 H3          5.5035    5.5265   -5.8515 H         1 <0>         0.0675
     38 H4          2.6332    4.9684   -4.9757 H         1 <0>         0.0867
     39 H5          3.9549    5.5126   -3.9149 H         1 <0>         0.0858
     40 H6          5.2399    3.4646   -4.4654 H         1 <0>         0.1332
     41 H7          3.9183    2.9204   -5.5262 H         1 <0>         0.1333
     42 H8          1.6836    3.9996   -3.4644 H         1 <0>         0.1366
     43 H9          1.7497    2.6725   -4.6469 H         1 <0>         0.1391
     44 H10         1.5403    1.0072   -2.8877 H         1 <0>         0.1098
     45 H11         0.2531    2.2173   -2.6466 H         1 <0>         0.1234
     46 H12        -2.4190    0.4392   -0.8741 H         1 <0>         0.0692
     47 H13        -2.4106    0.4295    0.9058 H         1 <0>         0.0688
     48 H14        -3.2718    1.7156    0.0269 H         1 <0>         0.1110
     49 H15         0.6481    1.5934    2.6547 H         1 <0>         0.4265
     50 H16        -0.0022    1.2098    4.3291 H         1 <0>         0.1340
     51 H17        -0.7057    0.7691    6.6443 H         1 <0>         0.1537
     52 H18         2.7436    2.8135    8.1024 H         1 <0>         0.1561
     53 H19         3.4704    3.2566    5.7949 H         1 <0>         0.1538
     54 H20         1.1587    3.7187   10.4802 H         1 <0>         0.0953
     55 H21        -0.0025    4.7701    9.6295 H         1 <0>         0.0720
     56 H22        -0.2619    5.0923   12.0386 H         1 <0>         0.0803
     57 H23        -0.4416    3.3379   12.2837 H         1 <0>         0.0714
     58 H24        -2.3107    5.0920   10.6261 H         1 <0>         0.0726
     59 H25        -3.7223    3.0431   10.5752 H         1 <0>         0.0794
     60 H26        -2.4441    2.1520   11.4369 H         1 <0>         0.0717
     61 H27        -2.2163    3.4612    8.6875 H         1 <0>         0.0718
     62 H28        -2.2332    1.7134    9.0369 H         1 <0>         0.0943
     63 H29        -2.6767    3.7637   13.3496 H         1 <0>         0.0564
     64 H30        -2.4884    5.5104   13.0637 H         1 <0>         0.0571
     65 H31        -3.9280    4.6590   12.4547 H         1 <0>         0.0568
     66 H32         3.7661    4.6395   -2.3094 H         1 <0>         0.1467
     67 H33         4.9400    3.3301   -2.0158 H         1 <0>         0.1437
     68 N3          3.4814    2.8780   -3.4701 N.4       1 <0>        -0.3949
     69 H34         3.7459    1.8875   -3.4131 H         1 <0>         0.4337
@<TRIPOS>BOND
     1    1    2 1
     2    1   35 1
     3    1   36 1
     4    1   37 1
     5    2    3 1
     6    2   38 1
     7    2   39 1
     8    3   40 1
     9    3   41 1
    10    3   68 1
    11    4    5 1
    12    4   42 1
    13    4   43 1
    14    4   68 1
    15    5    6 1
    16    5   44 1
    17    5   45 1
    18    6   10 1
    19    6    7 2
    20    7    8 1
    21    7   34 1
    22    8    9 1
    23    9   10 2
    24    9   15 1
    25   10   11 1
    26   11   12 2
    27   11   13 1
    28   13   14 1
    29   14   46 1
    30   14   47 1
    31   14   48 1
    32   15   16 am
    33   15   49 1
    34   16   17 2
    35   16   18 1
    36   18   23 ar
    37   18   19 ar
    38   19   20 ar
    39   19   50 1
    40   20   21 ar
    41   20   51 1
    42   21   22 ar
    43   21   24 1
    44   22   23 ar
    45   22   52 1
    46   23   53 1
    47   24   25 2
    48   24   26 2
    49   24   27 1
    50   27   32 1
    51   27   28 1
    52   28   29 1
    53   28   54 1
    54   28   55 1
    55   29   30 1
    56   29   56 1
    57   29   57 1
    58   30   31 1
    59   30   33 1
    60   30   58 1
    61   31   32 1
    62   31   59 1
    63   31   60 1
    64   32   61 1
    65   32   62 1
    66   33   63 1
    67   33   64 1
    68   33   65 1
    69   34   66 1
    70   34   67 1
    71   34   68 1
    72   68   69 1
