@<TRIPOS>MOLECULE
ZINC01073612
   48    51     0     0     0
SMALL
USER_CHARGES

@<TRIPOS>ATOM
      1 C1         -0.0191    1.1768   -0.5753 C.ar      1 <0>        -0.1159
      2 C2          1.0943    1.9366   -0.2687 C.ar      1 <0>        -0.1161
      3 C3          2.3310    1.3318   -0.1444 C.ar      1 <0>        -0.1087
      4 C4          2.4544   -0.0330   -0.3262 C.ar      1 <0>        -0.0848
      5 C5          1.3409   -0.7930   -0.6320 C.ar      1 <0>        -0.1133
      6 C6          0.1044   -0.1879   -0.7577 C.ar      1 <0>        -0.1160
      7 C7          3.8028   -0.6923   -0.1917 C.3       1 <0>        -0.0359
      8 H1          4.5550    0.0587    0.0499 H         1 <0>         0.0957
      9 C8          3.7521   -1.7445    0.9180 C.3       1 <0>        -0.0734
     10 C9          5.0893   -2.4374    1.0218 C.2       1 <0>         0.1767
     11 C10         5.8697   -2.5966   -0.0644 C.2       1 <0>        -0.2694
     12 C11         7.2020   -3.2966    0.0497 C.3       1 <0>         0.0945
     13 H2          7.9435   -2.7603   -0.5424 H         1 <0>         0.1080
     14 C12         7.6459   -3.3376    1.4846 C.2       1 <0>        -0.4166
     15 C13         6.7844   -3.1383    2.4685 C.2       1 <0>         0.4367
     16 O1          5.4810   -2.8928    2.2265 O.3       1 <0>        -0.2409
     17 N1          7.2335   -3.1833    3.7827 N.pl3     1 <0>        -0.8400
     18 C14         9.0924   -3.6101    1.8074 C.3       1 <0>         0.5286
     19 F1          9.1710   -4.5690    2.8230 F         1 <0>        -0.1816
     20 F2          9.7435   -4.0868    0.6645 F         1 <0>        -0.1698
     21 F3          9.7058   -2.4273    2.2342 F         1 <0>        -0.1799
     22 C15         7.0720   -4.7052   -0.4699 C.ar      1 <0>        -0.0722
     23 C16         6.1767   -5.5791    0.1184 C.ar      1 <0>        -0.0581
     24 C17         6.0575   -6.8710   -0.3581 C.ar      1 <0>        -0.1164
     25 C18         6.8332   -7.2892   -1.4234 C.ar      1 <0>        -0.0557
     26 C19         7.7276   -6.4153   -2.0121 C.ar      1 <0>        -0.0462
     27 C20         7.8438   -5.1217   -1.5382 C.ar      1 <0>        -0.0293
     28 N2          8.5585   -6.8631   -3.1523 N.pl3     1 <0>         0.0334
     29 O2          8.4548   -7.9935   -3.5686 O.2       1 <0>        -0.1595
     30 O3          9.3409   -6.0987   -3.6672 O.3       1 <0>        -0.1533
     31 C21         5.4731   -2.1170   -1.3260 C.2       1 <0>         0.4025
     32 O4          6.1961   -2.2939   -2.2862 O.2       1 <0>        -0.4440
     33 C22         4.1710   -1.3846   -1.5082 C.3       1 <0>        -0.1603
     34 H3         -0.9861    1.6487   -0.6680 H         1 <0>         0.1236
     35 H4          0.9979    3.0029   -0.1266 H         1 <0>         0.1247
     36 H5          3.2009    1.9255    0.0945 H         1 <0>         0.1242
     37 H6          1.4373   -1.8592   -0.7744 H         1 <0>         0.1228
     38 H7         -0.7655   -0.7816   -0.9970 H         1 <0>         0.1245
     39 H8          3.5196   -1.2605    1.8666 H         1 <0>         0.1070
     40 H9          2.9801   -2.4785    0.6870 H         1 <0>         0.1125
     41 H10         8.1748   -3.3253    3.9690 H         1 <0>         0.4258
     42 H11         6.6057   -3.0727    4.5139 H         1 <0>         0.4126
     43 H12         5.5707   -5.2524    0.9506 H         1 <0>         0.1311
     44 H13         5.3586   -7.5539    0.1019 H         1 <0>         0.1478
     45 H14         6.7406   -8.2989   -1.7953 H         1 <0>         0.1540
     46 H15         8.5400   -4.4376   -2.0005 H         1 <0>         0.1545
     47 H16         3.3899   -2.0956   -1.7775 H         1 <0>         0.1081
     48 H17         4.2754   -0.6387   -2.2961 H         1 <0>         0.1080
@<TRIPOS>BOND
     1    1    6 ar
     2    1    2 ar
     3    1   34 1
     4    2    3 ar
     5    2   35 1
     6    3    4 ar
     7    3   36 1
     8    4    5 ar
     9    4    7 1
    10    5    6 ar
    11    5   37 1
    12    6   38 1
    13    7    8 1
    14    7   33 1
    15    7    9 1
    16    9   10 1
    17    9   39 1
    18    9   40 1
    19   10   16 1
    20   10   11 2
    21   11   12 1
    22   11   31 1
    23   12   13 1
    24   12   14 1
    25   12   22 1
    26   14   15 2
    27   14   18 1
    28   15   16 1
    29   15   17 1
    30   17   41 1
    31   17   42 1
    32   18   19 1
    33   18   20 1
    34   18   21 1
    35   22   27 ar
    36   22   23 ar
    37   23   24 ar
    38   23   43 1
    39   24   25 ar
    40   24   44 1
    41   25   26 ar
    42   25   45 1
    43   26   27 ar
    44   26   28 1
    45   27   46 1
    46   28   29 2
    47   28   30 1
    48   31   32 2
    49   31   33 1
    50   33   47 1
    51   33   48 1
