@<TRIPOS>MOLECULE
ZINC43746889
   70    73     0     0     0
SMALL
USER_CHARGES

@<TRIPOS>ATOM
      1 C1         -0.0184    1.5028    0.0103 C.3       1 <0>        -0.1324
      2 C2          0.0021   -0.0041    0.0020 C.2       1 <0>         0.0487
      3 C3          0.0064   -0.7492   -1.2586 C.ar      1 <0>        -0.1936
      4 C4         -0.0082   -0.0831   -2.4895 C.ar      1 <0>        -0.0123
      5 C5         -0.0032   -0.8019   -3.6495 C.ar      1 <0>        -0.2254
      6 C6          0.0162   -2.1951   -3.6166 C.ar      1 <0>         0.1955
      7 C7          0.0309   -2.8705   -2.4074 C.ar      1 <0>        -0.1759
      8 C8          0.0262   -2.1558   -1.2190 C.ar      1 <0>         0.1905
      9 O1          0.0407   -2.7946   -0.0295 O.3       1 <0>        -0.2676
     10 C9          0.0369   -2.1175    1.1295 C.2       1 <0>         0.5177
     11 O2          0.0506   -2.7364    2.1783 O.2       1 <0>        -0.4608
     12 C10         0.0227   -0.7080    1.1637 C.2       1 <0>        -0.2416
     13 C11         0.0253    0.0157    2.4856 C.3       1 <0>        -0.0430
     14 C12        -1.4086    0.1307    3.0069 C.3       1 <0>        -0.1373
     15 C13        -1.4060    0.8544    4.3288 C.2       1 <0>         0.5198
     16 O3         -0.3602    1.2402    4.8068 O.2       1 <0>        -0.5258
     17 N1         -2.5657    1.0729    4.9797 N.am      1 <0>        -0.7379
     18 C14        -2.5632    1.7764    6.2647 C.3       1 <0>         0.1249
     19 C15        -3.9970    1.8914    6.7860 C.3       1 <0>        -0.1179
     20 H1         -4.4459    0.8993    6.8340 H         1 <0>         0.1019
     21 C16        -4.8131    2.7736    5.8396 C.3       1 <0>        -0.1343
     22 C17        -6.2267    2.9286    6.4104 C.3       1 <0>        -0.1445
     23 C18        -6.1296    3.5325    7.8111 C.3       1 <0>        -0.0087
     24 N2         -5.3515    2.6482    8.6914 N.4       1 <0>        -0.3768
     25 C19        -3.9816    2.5120    8.1870 C.3       1 <0>         0.0385
     26 H2         -3.5089    3.4933    8.1452 H         1 <0>         0.1393
     27 C20        -3.1735    1.5911    9.1074 C.3       1 <0>        -0.1469
     28 C21        -3.1515    2.1657   10.5249 C.3       1 <0>        -0.1374
     29 C22        -4.5958    2.3315   11.0092 C.3       1 <0>        -0.1465
     30 C23        -5.3405    3.2415   10.0369 C.3       1 <0>        -0.0064
     31 O4          0.0204   -2.8959   -4.7792 O.3       1 <0>        -0.3002
     32 C24         0.0042   -2.1405   -5.9921 C.3       1 <0>         0.0946
     33 C25         0.0116   -3.0808   -7.1697 C.2       1 <0>        -0.1519
     34 C26         0.0305   -4.3759   -6.9736 C.2       1 <0>        -0.1619
     35 C27        -0.0027   -2.5313   -8.5729 C.3       1 <0>        -0.1144
     36 H3          1.0042    1.8801    0.0026 H         1 <0>         0.0949
     37 H4         -0.5455    1.8639   -0.8728 H         1 <0>         0.0826
     38 H5         -0.5286    1.8543    0.9071 H         1 <0>         0.0831
     39 H6         -0.0236    0.9963   -2.5212 H         1 <0>         0.1445
     40 H7         -0.0149   -0.2878   -4.5992 H         1 <0>         0.1432
     41 H8          0.0459   -3.9503   -2.3902 H         1 <0>         0.1540
     42 H9          0.6292   -0.5401    3.2029 H         1 <0>         0.0916
     43 H10         0.4448    1.0130    2.3530 H         1 <0>         0.0887
     44 H11        -2.0125    0.6865    2.2896 H         1 <0>         0.0960
     45 H12        -1.8281   -0.8666    3.1395 H         1 <0>         0.1008
     46 H13        -3.4021    0.7643    4.5973 H         1 <0>         0.4025
     47 H14        -1.9593    1.2206    6.9820 H         1 <0>         0.0812
     48 H15        -2.1437    2.7737    6.1322 H         1 <0>         0.0783
     49 H16        -4.3428    3.7534    5.7563 H         1 <0>         0.0864
     50 H17        -4.8649    2.3054    4.8566 H         1 <0>         0.0948
     51 H18        -6.8097    3.5883    5.7678 H         1 <0>         0.1148
     52 H19        -6.7071    1.9518    6.4663 H         1 <0>         0.0887
     53 H20        -5.6407    4.5049    7.7522 H         1 <0>         0.1283
     54 H21        -7.1320    3.6587    8.2203 H         1 <0>         0.1317
     55 H22        -3.6320    0.6024    9.1242 H         1 <0>         0.0893
     56 H23        -2.1529    1.5099    8.7334 H         1 <0>         0.1151
     57 H24        -2.6194    1.4835   11.1879 H         1 <0>         0.0963
     58 H25        -2.6542    3.1357   10.5187 H         1 <0>         0.0828
     59 H26        -5.0838    1.3575   11.0428 H         1 <0>         0.0876
     60 H27        -4.5986    2.7781   12.0035 H         1 <0>         0.1134
     61 H28        -4.8439    4.2111   10.0001 H         1 <0>         0.1278
     62 H29        -6.3661    3.3761   10.3807 H         1 <0>         0.1312
     63 H30        -0.8946   -1.5246   -6.0246 H         1 <0>         0.0788
     64 H31         0.8852   -1.4999   -6.0331 H         1 <0>         0.0794
     65 H32         0.0359   -5.0498   -7.8175 H         1 <0>         0.1040
     66 H33         0.0408   -4.7697   -5.9680 H         1 <0>         0.1091
     67 H34         0.8780   -1.9081   -8.7280 H         1 <0>         0.0686
     68 H35         0.0054   -3.3556   -9.2860 H         1 <0>         0.0718
     69 H36        -0.9017   -1.9328   -8.7195 H         1 <0>         0.0682
     70 H37        -5.7894    1.7399    8.7279 H         1 <0>         0.4206
@<TRIPOS>BOND
     1    1    2 1
     2    1   36 1
     3    1   37 1
     4    1   38 1
     5    2   12 2
     6    2    3 1
     7    3    8 ar
     8    3    4 ar
     9    4    5 ar
    10    4   39 1
    11    5    6 ar
    12    5   40 1
    13    6    7 ar
    14    6   31 1
    15    7    8 ar
    16    7   41 1
    17    8    9 1
    18    9   10 1
    19   10   11 2
    20   10   12 1
    21   12   13 1
    22   13   14 1
    23   13   42 1
    24   13   43 1
    25   14   15 1
    26   14   44 1
    27   14   45 1
    28   15   16 2
    29   15   17 am
    30   17   18 1
    31   17   46 1
    32   18   19 1
    33   18   47 1
    34   18   48 1
    35   19   20 1
    36   19   25 1
    37   19   21 1
    38   21   22 1
    39   21   49 1
    40   21   50 1
    41   22   23 1
    42   22   51 1
    43   22   52 1
    44   23   24 1
    45   23   53 1
    46   23   54 1
    47   24   30 1
    48   24   25 1
    49   24   70 1
    50   25   26 1
    51   25   27 1
    52   27   28 1
    53   27   55 1
    54   27   56 1
    55   28   29 1
    56   28   57 1
    57   28   58 1
    58   29   30 1
    59   29   59 1
    60   29   60 1
    61   30   61 1
    62   30   62 1
    63   31   32 1
    64   32   33 1
    65   32   63 1
    66   32   64 1
    67   33   34 2
    68   33   35 1
    69   34   65 1
    70   34   66 1
    71   35   67 1
    72   35   68 1
    73   35   69 1
