@<TRIPOS>MOLECULE
ZINC45793796
   68    71     0     0     0
SMALL
USER_CHARGES

@<TRIPOS>ATOM
      1 C1          1.6074    0.9296    1.5620 C.3       1 <0>        -0.1283
      2 C2          1.4192   -0.5516    1.3575 C.ar      1 <0>        -0.0393
      3 C3          1.3495   -1.0668    0.0757 C.ar      1 <0>        -0.1235
      4 C4          1.1772   -2.4226   -0.1173 C.ar      1 <0>        -0.0640
      5 C5          1.0733   -3.2725    0.9818 C.ar      1 <0>        -0.0718
      6 C6          1.1442   -2.7481    2.2707 C.ar      1 <0>        -0.0563
      7 C7          1.3223   -1.3915    2.4522 C.ar      1 <0>        -0.1270
      8 C8          0.8874   -4.7312    0.7804 C.2       1 <0>         0.3114
      9 N1          0.7690   -5.6491    1.7564 N.2       1 <0>        -0.4859
     10 C9          0.6177   -6.8344    1.2379 C.2       1 <0>         0.2189
     11 O1          0.6335   -6.7194   -0.0963 O.3       1 <0>        -0.0858
     12 N2          0.8057   -5.3384   -0.3776 N.2       1 <0>        -0.2937
     13 C10         0.4533   -8.1185    2.0092 C.3       1 <0>         0.0970
     14 N3         -0.9739   -8.3602    2.2594 N.4       1 <0>        -0.3883
     15 C11        -1.6642   -8.5812    0.9819 C.3       1 <0>        -0.0100
     16 C12        -3.1543   -8.8143    1.2406 C.3       1 <0>         0.0258
     17 N4         -3.3196   -9.9839    2.1153 N.3       1 <0>        -0.5267
     18 C13        -2.6129   -9.7873    3.3888 C.3       1 <0>         0.0269
     19 C14        -1.1272   -9.5461    3.1124 C.3       1 <0>        -0.0008
     20 C15        -4.7415  -10.2750    2.3418 C.3       1 <0>         0.0238
     21 C16        -5.3306  -10.9403    1.0962 C.3       1 <0>         0.1181
     22 H1         -5.1889  -10.2881    0.2345 H         1 <0>         0.1082
     23 C17        -6.8255  -11.1872    1.3086 C.3       1 <0>         0.0255
     24 O2         -7.3992  -11.7009    0.1049 O.3       1 <0>        -0.2999
     25 C18        -8.7299  -11.9760    0.1241 C.ar      1 <0>         0.1229
     26 C19        -9.4696  -11.7507    1.2762 C.ar      1 <0>        -0.2077
     27 C20       -10.8220  -12.0308    1.2930 C.ar      1 <0>        -0.0855
     28 C21       -11.4390  -12.5352    0.1628 C.ar      1 <0>        -0.1487
     29 C22       -10.7042  -12.7609   -0.9862 C.ar      1 <0>        -0.0774
     30 C23        -9.3522  -12.4771   -1.0099 C.ar      1 <0>        -0.1009
     31 C24        -8.5530  -12.7175   -2.2647 C.3       1 <0>        -0.0509
     32 C25        -8.6315  -14.1978   -2.6435 C.3       1 <0>        -0.1442
     33 C26        -9.1232  -11.8689   -3.4029 C.3       1 <0>        -0.1443
     34 O3         -4.6702  -12.1862    0.8643 O.3       1 <0>        -0.5351
     35 H2          2.6724    1.1582    1.6030 H         1 <0>         0.0827
     36 H3          1.1510    1.4716    0.7338 H         1 <0>         0.0755
     37 H4          1.1350    1.2302    2.4972 H         1 <0>         0.0752
     38 H5          1.4298   -0.4071   -0.7755 H         1 <0>         0.1385
     39 H6          1.1226   -2.8238   -1.1185 H         1 <0>         0.1340
     40 H7          1.0638   -3.4024    3.1261 H         1 <0>         0.1372
     41 H8          1.3817   -0.9845    3.4508 H         1 <0>         0.1377
     42 H9          0.8658   -8.9452    1.4307 H         1 <0>         0.1719
     43 H10         0.9809   -8.0414    2.9599 H         1 <0>         0.1787
     44 H11        -1.5386   -7.7057    0.3449 H         1 <0>         0.1308
     45 H12        -1.2404   -9.4548    0.4864 H         1 <0>         0.1508
     46 H13        -3.5813   -7.9356    1.7238 H         1 <0>         0.0627
     47 H14        -3.6642   -8.9932    0.2940 H         1 <0>         0.1282
     48 H15        -3.0310   -8.9245    3.9074 H         1 <0>         0.0632
     49 H16        -2.7277  -10.6759    4.0095 H         1 <0>         0.1297
     50 H17        -0.7062  -10.4147    2.6060 H         1 <0>         0.1476
     51 H18        -0.6036   -9.3860    4.0549 H         1 <0>         0.1447
     52 H19        -4.8437  -10.9459    3.1947 H         1 <0>         0.0963
     53 H20        -5.2749   -9.3462    2.5441 H         1 <0>         0.0629
     54 H21        -6.9638  -11.9089    2.1138 H         1 <0>         0.0677
     55 H22        -7.3146  -10.2497    1.5731 H         1 <0>         0.0692
     56 H23        -8.9881  -11.3571    2.1592 H         1 <0>         0.1228
     57 H24       -11.3981  -11.8559    2.1896 H         1 <0>         0.1252
     58 H25       -12.4966  -12.7535    0.1780 H         1 <0>         0.1264
     59 H26       -11.1882  -13.1553   -1.8674 H         1 <0>         0.1306
     60 H27        -7.5129  -12.4415   -2.0915 H         1 <0>         0.0838
     61 H28        -9.6716  -14.4739   -2.8167 H         1 <0>         0.0565
     62 H29        -8.0534  -14.3717   -3.5511 H         1 <0>         0.0594
     63 H30        -8.2253  -14.8024   -1.8326 H         1 <0>         0.0547
     64 H31        -9.0672  -10.8143   -3.1330 H         1 <0>         0.0530
     65 H32        -8.5451  -12.0428   -4.3105 H         1 <0>         0.0594
     66 H33       -10.1633  -12.1449   -3.5761 H         1 <0>         0.0570
     67 H34        -4.7546  -12.8175    1.5920 H         1 <0>         0.3764
     68 H35        -1.3743   -7.5585    2.7233 H         1 <0>         0.4275
@<TRIPOS>BOND
     1    1    2 1
     2    1   35 1
     3    1   36 1
     4    1   37 1
     5    2    7 ar
     6    2    3 ar
     7    3    4 ar
     8    3   38 1
     9    4    5 ar
    10    4   39 1
    11    5    6 ar
    12    5    8 1
    13    6    7 ar
    14    6   40 1
    15    7   41 1
    16    8   12 2
    17    8    9 1
    18    9   10 2
    19   10   11 1
    20   10   13 1
    21   11   12 1
    22   13   14 1
    23   13   42 1
    24   13   43 1
    25   14   19 1
    26   14   15 1
    27   14   68 1
    28   15   16 1
    29   15   44 1
    30   15   45 1
    31   16   17 1
    32   16   46 1
    33   16   47 1
    34   17   18 1
    35   17   20 1
    36   18   19 1
    37   18   48 1
    38   18   49 1
    39   19   50 1
    40   19   51 1
    41   20   21 1
    42   20   52 1
    43   20   53 1
    44   21   22 1
    45   21   23 1
    46   21   34 1
    47   23   24 1
    48   23   54 1
    49   23   55 1
    50   24   25 1
    51   25   30 ar
    52   25   26 ar
    53   26   27 ar
    54   26   56 1
    55   27   28 ar
    56   27   57 1
    57   28   29 ar
    58   28   58 1
    59   29   30 ar
    60   29   59 1
    61   30   31 1
    62   31   32 1
    63   31   33 1
    64   31   60 1
    65   32   61 1
    66   32   62 1
    67   32   63 1
    68   33   64 1
    69   33   65 1
    70   33   66 1
    71   34   67 1
