@<TRIPOS>MOLECULE
ZINC63708021
   59    63     0     0     0
SMALL
USER_CHARGES

@<TRIPOS>ATOM
      1 C1         -0.0184    1.5028    0.0103 C.3       1 <0>        -0.0914
      2 C2          0.0021   -0.0041    0.0020 C.2       1 <0>        -0.0295
      3 C3         -1.0863   -0.7768    0.0030 C.2       1 <0>        -0.1673
      4 C4         -0.5311   -2.1901   -0.0073 C.3       1 <0>         0.1907
      5 H1         -0.8370   -2.7309    0.8883 H         1 <0>         0.1705
      6 N1          0.9257   -1.9734   -0.0130 N.2       1 <0>        -0.1536
      7 N2          1.1248   -0.7562   -0.0132 N.2       1 <0>        -0.1411
      8 N3         -0.9570   -2.9052   -1.2129 N.am      1 <0>        -0.6893
      9 C5         -1.4125   -4.1703   -1.1204 C.2       1 <0>         0.5448
     10 O1         -1.4698   -4.7167   -0.0392 O.2       1 <0>        -0.5079
     11 C6         -1.8505   -4.9060   -2.3606 C.3       1 <0>        -0.1600
     12 S1         -2.4067   -6.5728   -1.9101 S.3       1 <0>         0.1189
     13 C7         -2.8792   -7.2943   -3.4466 C.2       1 <0>         0.3578
     14 N4         -2.7550   -6.5807   -4.5330 N.2       1 <0>        -0.5158
     15 C8         -3.0956   -7.0604   -5.7554 C.ar      1 <0>         0.1430
     16 C9         -2.9547   -6.2809   -6.9062 C.ar      1 <0>        -0.0991
     17 C10        -3.3103   -6.8012   -8.1310 C.ar      1 <0>        -0.0770
     18 C11        -3.8082   -8.0921   -8.2371 C.ar      1 <0>        -0.1269
     19 C12        -3.9559   -8.8798   -7.1144 C.ar      1 <0>        -0.0455
     20 C13        -3.6016   -8.3716   -5.8689 C.ar      1 <0>        -0.1024
     21 C14        -3.7421   -9.1784   -4.6374 C.2       1 <0>         0.3781
     22 N5         -4.1759  -10.3964   -4.4707 N.2       1 <0>        -0.4580
     23 C15        -4.1038  -10.7074   -3.0364 C.3       1 <0>         0.0430
     24 H2         -5.0966  -10.9233   -2.6417 H         1 <0>         0.1566
     25 C16        -3.5491   -9.4432   -2.4150 C.2       1 <0>         0.5006
     26 O2         -3.3196   -9.2418   -1.2419 O.2       1 <0>        -0.4282
     27 N6         -3.3575   -8.5881   -3.4454 N.am      1 <0>        -0.5349
     28 C17        -3.1618  -11.8876   -2.7901 C.3       1 <0>        -0.1176
     29 C18        -3.7514  -13.1356   -3.3952 C.2       1 <0>         0.5204
     30 O3         -4.8198  -13.0859   -3.9670 O.2       1 <0>        -0.5127
     31 N7         -3.0914  -14.3069   -3.3008 N.am      1 <0>        -0.7287
     32 C19        -3.6645  -15.5201   -3.8890 C.3       1 <0>         0.1635
     33 C20        -2.7367  -16.6826   -3.6464 C.ar      1 <0>        -0.1122
     34 C21        -1.7451  -16.9784   -4.5629 C.ar      1 <0>        -0.1007
     35 C22        -0.8941  -18.0447   -4.3404 C.ar      1 <0>        -0.1215
     36 C23        -1.0344  -18.8150   -3.2012 C.ar      1 <0>        -0.1108
     37 C24        -2.0254  -18.5186   -2.2842 C.ar      1 <0>        -0.1214
     38 C25        -2.8737  -17.4497   -2.5046 C.ar      1 <0>        -0.1005
     39 H3          1.0042    1.8801    0.0026 H         1 <0>         0.0826
     40 H4         -0.5455    1.8639   -0.8728 H         1 <0>         0.0823
     41 H5         -0.5286    1.8543    0.9071 H         1 <0>         0.0825
     42 H6         -2.1213   -0.4684    0.0099 H         1 <0>         0.1788
     43 H7         -0.9111   -2.4683   -2.0777 H         1 <0>         0.4132
     44 H8         -2.6701   -4.3649   -2.8336 H         1 <0>         0.1342
     45 H9         -1.0137   -4.9775   -3.0553 H         1 <0>         0.1350
     46 H10        -2.5689   -5.2746   -6.8357 H         1 <0>         0.1406
     47 H11        -3.2006   -6.1970   -9.0195 H         1 <0>         0.1372
     48 H12        -4.0825   -8.4828   -9.2059 H         1 <0>         0.1371
     49 H13        -4.3442   -9.8838   -7.2016 H         1 <0>         0.1436
     50 H14        -2.1949  -11.6828   -3.2497 H         1 <0>         0.1012
     51 H15        -3.0313  -12.0306   -1.7174 H         1 <0>         0.1184
     52 H16        -2.2369  -14.3466   -2.8434 H         1 <0>         0.4019
     53 H17        -4.6314  -15.7248   -3.4294 H         1 <0>         0.0777
     54 H18        -3.7951  -15.3771   -4.9616 H         1 <0>         0.0778
     55 H19        -1.6355  -16.3766   -5.4530 H         1 <0>         0.1239
     56 H20        -0.1198  -18.2763   -5.0569 H         1 <0>         0.1248
     57 H21        -0.3699  -19.6485   -3.0277 H         1 <0>         0.1241
     58 H22        -2.1353  -19.1206   -1.3943 H         1 <0>         0.1250
     59 H23        -3.6457  -17.2158   -1.7863 H         1 <0>         0.1244
@<TRIPOS>BOND
     1    1    2 1
     2    1   39 1
     3    1   40 1
     4    1   41 1
     5    2    7 1
     6    2    3 2
     7    3    4 1
     8    3   42 1
     9    4    5 1
    10    4    6 1
    11    4    8 1
    12    6    7 2
    13    8    9 am
    14    8   43 1
    15    9   10 2
    16    9   11 1
    17   11   12 1
    18   11   44 1
    19   11   45 1
    20   12   13 1
    21   13   27 1
    22   13   14 2
    23   14   15 1
    24   15   20 ar
    25   15   16 ar
    26   16   17 ar
    27   16   46 1
    28   17   18 ar
    29   17   47 1
    30   18   19 ar
    31   18   48 1
    32   19   20 ar
    33   19   49 1
    34   20   21 1
    35   21   27 1
    36   21   22 2
    37   22   23 1
    38   23   24 1
    39   23   25 1
    40   23   28 1
    41   25   26 2
    42   25   27 am
    43   28   29 1
    44   28   50 1
    45   28   51 1
    46   29   30 2
    47   29   31 am
    48   31   32 1
    49   31   52 1
    50   32   33 1
    51   32   53 1
    52   32   54 1
    53   33   38 ar
    54   33   34 ar
    55   34   35 ar
    56   34   55 1
    57   35   36 ar
    58   35   56 1
    59   36   37 ar
    60   36   57 1
    61   37   38 ar
    62   37   58 1
    63   38   59 1
