@<TRIPOS>MOLECULE
ZINC36104812
   52    55     0     0     0
SMALL
USER_CHARGES

@<TRIPOS>ATOM
      1 C1         -0.0187    1.5258    0.0104 C.3       1 <0>        -0.1452
      2 C2          0.0021   -0.0041    0.0020 C.3       1 <0>        -0.0270
      3 C3          0.7074   -0.4901   -1.2379 C.2       1 <0>         0.2382
      4 N1          0.1239   -0.7431   -2.4075 N.2       1 <0>        -0.4982
      5 C4          1.0253   -1.1460   -3.2610 C.2       1 <0>         0.2523
      6 N2          2.2465   -1.1675   -2.6596 N.pl3     1 <0>        -0.3680
      7 N3          1.9884   -0.7242   -1.3363 N.2       1 <0>        -0.2801
      8 C5          3.3163   -1.5716   -3.4216 C.2       1 <0>         0.4790
      9 C6          3.1472   -1.9257   -4.7009 C.2       1 <0>        -0.4842
     10 S1          1.3877   -1.6983   -4.9103 S.3       1 <0>         0.0804
     11 C7          4.1720   -2.3925   -5.7024 C.3       1 <0>         0.2363
     12 H1          5.1665   -2.3291   -5.2609 H         1 <0>         0.1501
     13 C8          3.8836   -3.8206   -6.0878 C.ar      1 <0>        -0.0999
     14 C9          2.9026   -4.0997   -7.0210 C.ar      1 <0>        -0.1120
     15 C10         2.6377   -5.4092   -7.3749 C.ar      1 <0>        -0.0967
     16 C11         3.3544   -6.4408   -6.7950 C.ar      1 <0>        -0.0261
     17 C12         4.3360   -6.1608   -5.8610 C.ar      1 <0>        -0.0984
     18 C13         4.6039   -4.8505   -5.5121 C.ar      1 <0>        -0.0739
     19 Cl1         3.0217   -8.0859   -7.2385 Cl        1 <0>        -0.0580
     20 N4          4.1117   -1.5409   -6.8979 N.4       1 <0>        -0.3809
     21 C14         5.1042   -2.0023   -7.8759 C.3       1 <0>        -0.0094
     22 C15         4.9904   -1.1700   -9.1550 C.3       1 <0>        -0.1091
     23 H2          5.7294   -1.5129   -9.8792 H         1 <0>         0.1142
     24 C16         5.2449    0.3032   -8.8232 C.3       1 <0>        -0.1261
     25 C17         4.2516    0.7530   -7.7479 C.3       1 <0>        -0.1111
     26 H3          3.2362    0.6817   -8.1376 H         1 <0>         0.0921
     27 C18         4.3927   -0.1505   -6.5210 C.3       1 <0>         0.0026
     28 C19         4.5469    2.2015   -7.3535 C.3       1 <0>        -0.1477
     29 C20         3.5870   -1.3271   -9.7436 C.3       1 <0>        -0.1710
     30 O1          4.5593   -1.6116   -2.8702 O.3       1 <0>        -0.6440
     31 H4          1.0039    1.9031    0.0027 H         1 <0>         0.0574
     32 H5         -0.5459    1.8868   -0.8726 H         1 <0>         0.0600
     33 H6         -0.5289    1.8773    0.9072 H         1 <0>         0.0698
     34 H7          0.5293   -0.3651    0.8851 H         1 <0>         0.0907
     35 H8         -1.0205   -0.3814    0.0098 H         1 <0>         0.0952
     36 H9          2.3430   -3.2944   -7.4734 H         1 <0>         0.1215
     37 H10         1.8710   -5.6272   -8.1037 H         1 <0>         0.1408
     38 H11         4.8955   -6.9657   -5.4078 H         1 <0>         0.1417
     39 H12         5.3734   -4.6315   -4.7867 H         1 <0>         0.1427
     40 H13         6.1046   -1.8905   -7.4580 H         1 <0>         0.1280
     41 H14         4.9237   -3.0517   -8.1086 H         1 <0>         0.1274
     42 H15         6.2628    0.4227   -8.4521 H         1 <0>         0.0812
     43 H16         5.1094    0.9075   -9.7202 H         1 <0>         0.0893
     44 H17         3.6871    0.1672   -5.7533 H         1 <0>         0.1341
     45 H18         5.4084   -0.0781   -6.1319 H         1 <0>         0.1246
     46 H19         4.4495    2.8435   -8.2290 H         1 <0>         0.0719
     47 H20         3.8396    2.5211   -6.5882 H         1 <0>         0.0672
     48 H21         5.5619    2.2719   -6.9624 H         1 <0>         0.0651
     49 H22         2.8486   -0.9826   -9.0195 H         1 <0>         0.0527
     50 H23         3.5066   -0.7341  -10.6546 H         1 <0>         0.0813
     51 H24         3.4058   -2.3765   -9.9760 H         1 <0>         0.0716
     52 H25         3.1899   -1.5984   -7.3043 H         1 <0>         0.4079
@<TRIPOS>BOND
     1    1    2 1
     2    1   31 1
     3    1   32 1
     4    1   33 1
     5    2    3 1
     6    2   34 1
     7    2   35 1
     8    3    7 2
     9    3    4 1
    10    4    5 2
    11    5   10 1
    12    5    6 1
    13    6    7 1
    14    6    8 1
    15    8    9 2
    16    8   30 1
    17    9   10 1
    18    9   11 1
    19   11   12 1
    20   11   13 1
    21   11   20 1
    22   13   18 ar
    23   13   14 ar
    24   14   15 ar
    25   14   36 1
    26   15   16 ar
    27   15   37 1
    28   16   17 ar
    29   16   19 1
    30   17   18 ar
    31   17   38 1
    32   18   39 1
    33   20   27 1
    34   20   21 1
    35   20   52 1
    36   21   22 1
    37   21   40 1
    38   21   41 1
    39   22   23 1
    40   22   24 1
    41   22   29 1
    42   24   25 1
    43   24   42 1
    44   24   43 1
    45   25   26 1
    46   25   27 1
    47   25   28 1
    48   27   44 1
    49   27   45 1
    50   28   46 1
    51   28   47 1
    52   28   48 1
    53   29   49 1
    54   29   50 1
    55   29   51 1
