@<TRIPOS>MOLECULE
ZINC63479162
   60    63     0     0     0
SMALL
USER_CHARGES

@<TRIPOS>ATOM
      1 C1          0.0626    1.5033    0.0022 C.3       1 <0>        -0.1201
      2 C2          0.0615   -0.0037   -0.0038 C.ar      1 <0>        -0.0642
      3 C3          0.8661   -0.6907   -0.8945 C.ar      1 <0>        -0.1238
      4 C4          0.8674   -2.0715   -0.9027 C.ar      1 <0>        -0.0566
      5 C5          0.0595   -2.7705   -0.0150 C.ar      1 <0>         0.0974
      6 C6         -0.7473   -2.0778    0.8780 C.ar      1 <0>        -0.0701
      7 C7         -0.7397   -0.6965    0.8849 C.ar      1 <0>        -0.1223
      8 C8         -1.6258   -2.8321    1.8425 C.3       1 <0>        -0.1280
      9 N1          0.0581   -4.1694   -0.0209 N.pl3     1 <0>        -0.6026
     10 C9         -0.0405   -4.8383   -1.1869 C.2       1 <0>         0.5624
     11 S1         -0.0594   -3.9792   -2.6676 S.2       1 <0>        -0.6190
     12 N2         -0.1242   -6.1834   -1.1871 N.pl3     1 <0>        -0.5714
     13 C10        -0.2314   -6.9105   -2.4545 C.3       1 <0>         0.1006
     14 C11         1.1693   -7.2530   -2.9659 C.3       1 <0>        -0.1135
     15 C12         1.0591   -8.0009   -4.2696 C.2       1 <0>         0.0974
     16 C13        -0.0776   -8.3322   -4.9233 C.ar      1 <0>        -0.1724
     17 C14        -1.4971   -8.1048   -4.6271 C.ar      1 <0>        -0.0167
     18 C15        -2.4301   -8.5668   -5.4917 C.ar      1 <0>        -0.0764
     19 C16        -2.0748   -9.2563   -6.6606 C.ar      1 <0>         0.0542
     20 C17        -0.7920   -9.5031   -6.9998 C.ar      1 <0>        -0.1892
     21 C18         0.2706   -9.0620   -6.1635 C.ar      1 <0>         0.3365
     22 N3          1.5719   -9.1772   -6.2721 N.pl3     1 <0>        -0.5791
     23 C19         2.1973   -8.5271   -5.1151 C.3       1 <0>         0.0957
     24 H1          2.8339   -7.7048   -5.4419 H         1 <0>         0.1789
     25 C20         3.0169   -9.5461   -4.3208 C.3       1 <0>        -0.1561
     26 Cl1        -4.1101   -8.2999   -5.1449 Cl        1 <0>        -0.0156
     27 C21        -0.1080   -6.9186    0.0800 C.3       1 <0>         0.1438
     28 C22        -1.5189   -7.0825    0.5837 C.ar      1 <0>         0.0868
     29 C23        -2.2140   -8.2437    0.3025 C.ar      1 <0>        -0.1553
     30 C24        -3.5113   -8.3845    0.7705 C.ar      1 <0>        -0.0687
     31 C25        -4.0634   -7.3475    1.5072 C.ar      1 <0>        -0.1548
     32 C26        -3.3075   -6.2162    1.7486 C.ar      1 <0>         0.1106
     33 N4         -2.0740   -6.1189    1.2921 N.ar      1 <0>        -0.4731
     34 H2          0.8274    1.8633    0.6904 H         1 <0>         0.0742
     35 H3          0.2752    1.8705   -1.0018 H         1 <0>         0.0694
     36 H4         -0.9141    1.8661    0.3225 H         1 <0>         0.0684
     37 H5          1.4938   -0.1466   -1.5847 H         1 <0>         0.1270
     38 H6          1.4957   -2.6075   -1.5987 H         1 <0>         0.1414
     39 H7         -1.3636   -0.1571    1.5822 H         1 <0>         0.1274
     40 H8         -1.0765   -3.0176    2.7655 H         1 <0>         0.0704
     41 H9         -2.5154   -2.2416    2.0616 H         1 <0>         0.0696
     42 H10        -1.9209   -3.7826    1.3980 H         1 <0>         0.0816
     43 H11         0.1281   -4.6581    0.8141 H         1 <0>         0.4116
     44 H12        -0.7964   -7.8296   -2.2994 H         1 <0>         0.0956
     45 H13        -0.7439   -6.2882   -3.1881 H         1 <0>         0.1279
     46 H14         1.7344   -6.3339   -3.1210 H         1 <0>         0.1416
     47 H15         1.6819   -7.8753   -2.2323 H         1 <0>         0.1268
     48 H16        -1.7925   -7.5770   -3.7324 H         1 <0>         0.1735
     49 H17        -2.8599   -9.6041   -7.3157 H         1 <0>         0.1702
     50 H18        -0.5711  -10.0388   -7.9112 H         1 <0>         0.1707
     51 H19         2.3763  -10.3776   -4.0268 H         1 <0>         0.0828
     52 H20         3.8333   -9.9177   -4.9401 H         1 <0>         0.0974
     53 H21         3.4248   -9.0690   -3.4297 H         1 <0>         0.1070
     54 H22         0.3387   -7.9006   -0.0754 H         1 <0>         0.1150
     55 H23         0.4777   -6.3650    0.8138 H         1 <0>         0.1003
     56 H24        -1.7525   -9.0312   -0.2749 H         1 <0>         0.1331
     57 H25        -4.0786   -9.2805    0.5659 H         1 <0>         0.1405
     58 H26        -5.0715   -7.4229    1.8871 H         1 <0>         0.1426
     59 H27        -3.7302   -5.4041    2.3215 H         1 <0>         0.1627
     60 H28         2.0427   -9.6155   -6.9981 H         1 <0>         0.4559
@<TRIPOS>BOND
     1    1    2 1
     2    1   34 1
     3    1   35 1
     4    1   36 1
     5    2    7 ar
     6    2    3 ar
     7    3    4 ar
     8    3   37 1
     9    4    5 ar
    10    4   38 1
    11    5    6 ar
    12    5    9 1
    13    6    7 ar
    14    6    8 1
    15    7   39 1
    16    8   40 1
    17    8   41 1
    18    8   42 1
    19    9   10 1
    20    9   43 1
    21   10   11 2
    22   10   12 1
    23   12   13 1
    24   12   27 1
    25   13   14 1
    26   13   44 1
    27   13   45 1
    28   14   15 1
    29   14   46 1
    30   14   47 1
    31   15   23 1
    32   15   16 2
    33   16   21 ar
    34   16   17 ar
    35   17   18 ar
    36   17   48 1
    37   18   19 ar
    38   18   26 1
    39   19   20 ar
    40   19   49 1
    41   20   21 ar
    42   20   50 1
    43   21   22 2
    44   22   23 1
    45   22   60 1
    46   23   24 1
    47   23   25 1
    48   25   51 1
    49   25   52 1
    50   25   53 1
    51   27   28 1
    52   27   54 1
    53   27   55 1
    54   28   33 ar
    55   28   29 ar
    56   29   30 ar
    57   29   56 1
    58   30   31 ar
    59   30   57 1
    60   31   32 ar
    61   31   58 1
    62   32   33 ar
    63   32   59 1
