@<TRIPOS>MOLECULE
ZINC66122355
   38    39     0     0     0
SMALL
USER_CHARGES

@<TRIPOS>ATOM
      1 C1          0.4070    1.5128    0.4628 C.3       1 <0>        -0.1588
      2 C2          0.5082   -0.0137    0.4480 C.3       1 <0>         0.1765
      3 H1         -0.4776   -0.4415    0.2656 H         1 <0>         0.1429
      4 C3          1.4525   -0.4440   -0.6447 C.ar      1 <0>        -0.0833
      5 C4          2.7872   -0.6625   -0.3584 C.ar      1 <0>        -0.0950
      6 C5          3.6538   -1.0571   -1.3600 C.ar      1 <0>        -0.0957
      7 C6          3.1858   -1.2342   -2.6501 C.ar      1 <0>        -0.0234
      8 C7          1.8505   -1.0163   -2.9372 C.ar      1 <0>        -0.0947
      9 C8          0.9825   -0.6259   -1.9330 C.ar      1 <0>        -0.0132
     10 Cl1        -0.6949   -0.3579   -2.2911 Cl        1 <0>        -0.0365
     11 Cl2         4.2747   -1.7294   -3.9083 Cl        1 <0>        -0.0509
     12 N1          1.0121   -0.4823    1.7414 N.pl3     1 <0>        -0.6827
     13 C9          0.1500   -0.7659    2.7378 C.2       1 <0>         0.5649
     14 S1         -1.5339   -0.5786    2.4921 S.2       1 <0>        -0.5894
     15 N2          0.6135   -1.1969    3.9277 N.pl3     1 <0>        -0.4684
     16 N3          1.9915   -1.3502    4.1288 N.am      1 <0>        -0.5382
     17 C10         2.4551   -1.7813    5.3186 C.2       1 <0>         0.5875
     18 O1          1.6754   -2.1254    6.1867 O.2       1 <0>        -0.5287
     19 C11         3.9036   -1.8356    5.5676 C.2       1 <0>        -0.2851
     20 C12         4.3942   -2.1555    6.8319 C.2       1 <0>         0.0857
     21 C13         5.7741   -2.1978    7.0300 C.2       1 <0>        -0.2394
     22 C14         6.6188   -1.9297    6.0016 C.2       1 <0>         0.1767
     23 N4          6.1490   -1.6176    4.7702 N.am      1 <0>        -0.5940
     24 C15         4.8262   -1.5690    4.5231 C.2       1 <0>         0.5388
     25 O2          4.4226   -1.2914    3.4070 O.2       1 <0>        -0.5589
     26 H2          1.3929    1.9406    0.6452 H         1 <0>         0.0590
     27 H3          0.0321    1.8614   -0.4995 H         1 <0>         0.0800
     28 H4         -0.2760    1.8241    1.2532 H         1 <0>         0.0826
     29 H5          3.1529   -0.5244    0.6484 H         1 <0>         0.1355
     30 H6          4.6965   -1.2269   -1.1358 H         1 <0>         0.1436
     31 H7          1.4849   -1.1544   -3.9439 H         1 <0>         0.1504
     32 H8          1.9661   -0.5884    1.8806 H         1 <0>         0.3953
     33 H9         -0.0069   -1.4011    4.6448 H         1 <0>         0.4577
     34 H10         2.6120   -1.1461    3.4116 H         1 <0>         0.4310
     35 H11         3.7165   -2.3670    7.6458 H         1 <0>         0.1580
     36 H12         6.1715   -2.4440    8.0036 H         1 <0>         0.1640
     37 H13         7.6852   -1.9655    6.1685 H         1 <0>         0.1803
     38 H14         6.7756   -1.4299    4.0539 H         1 <0>         0.4261
@<TRIPOS>BOND
     1    1    2 1
     2    1   26 1
     3    1   27 1
     4    1   28 1
     5    2    3 1
     6    2    4 1
     7    2   12 1
     8    4    9 ar
     9    4    5 ar
    10    5    6 ar
    11    5   29 1
    12    6    7 ar
    13    6   30 1
    14    7    8 ar
    15    7   11 1
    16    8    9 ar
    17    8   31 1
    18    9   10 1
    19   12   13 1
    20   12   32 1
    21   13   14 2
    22   13   15 1
    23   15   16 1
    24   15   33 1
    25   16   17 am
    26   16   34 1
    27   17   18 2
    28   17   19 1
    29   19   20 2
    30   19   24 1
    31   20   21 1
    32   20   35 1
    33   21   22 2
    34   21   36 1
    35   22   23 1
    36   22   37 1
    37   23   24 am
    38   23   38 1
    39   24   25 2
