@<TRIPOS>MOLECULE
ZINC38884163
   65    68     0     0     0
SMALL
USER_CHARGES

@<TRIPOS>ATOM
      1 C1         -0.7211    1.6502    0.5756 C.3       1 <0>        -0.1657
      2 C2         -0.4177    0.1686    0.3440 C.3       1 <0>         0.1364
      3 H1          0.1997    0.0592   -0.5476 H         1 <0>         0.1003
      4 C3         -1.7288   -0.5967    0.1534 C.3       1 <0>        -0.1223
      5 C4         -1.4225   -2.0416   -0.2458 C.3       1 <0>        -0.0195
      6 C5         -0.5127   -2.0489   -1.4759 C.3       1 <0>        -0.1452
      7 C6         -0.7200   -2.7527    0.9124 C.3       1 <0>        -0.1499
      8 C7         -2.7090   -2.7571   -0.5683 C.ar      1 <0>        -0.0762
      9 C8         -3.9141   -2.0855   -0.4809 C.ar      1 <0>        -0.1240
     10 C9         -5.0942   -2.7418   -0.7767 C.ar      1 <0>        -0.1160
     11 C10        -5.0692   -4.0696   -1.1604 C.ar      1 <0>        -0.1214
     12 C11        -3.8640   -4.7410   -1.2487 C.ar      1 <0>        -0.1159
     13 C12        -2.6836   -4.0834   -0.9570 C.ar      1 <0>        -0.1159
     14 N1          0.2982   -0.3703    1.5030 N.am      1 <0>        -0.7140
     15 C13         1.6373   -0.2422    1.5871 C.2       1 <0>         0.5139
     16 O1          2.2495    0.3192    0.7034 O.2       1 <0>        -0.5236
     17 C14         2.3738   -0.7965    2.7793 C.3       1 <0>        -0.1249
     18 C15         1.8651   -0.1198    4.0555 C.3       1 <0>        -0.1397
     19 C16         2.6713   -0.6289    5.2523 C.3       1 <0>        -0.0031
     20 N2          4.0915   -0.3110    5.0610 N.4       1 <0>        -0.3871
     21 C17         4.6044   -1.0142    3.8790 C.3       1 <0>        -0.0161
     22 C18         3.8725   -0.5200    2.6293 C.3       1 <0>        -0.1246
     23 C19         4.8499   -0.7317    6.2466 C.3       1 <0>         0.0953
     24 C20         6.2857   -0.2965    6.1049 C.2       1 <0>         0.2232
     25 N3          6.7799    0.8375    6.5112 N.2       1 <0>        -0.4837
     26 C21         8.0945    0.8967    6.2246 C.2       1 <0>         0.3549
     27 N4          8.4423   -0.2188    5.6258 N.2       1 <0>        -0.2855
     28 O2          7.2687   -1.0137    5.5452 O.3       1 <0>        -0.0825
     29 C22         8.9944    2.0272    6.5323 C.2       1 <0>        -0.1673
     30 C23        10.3319    2.1623    6.2690 C.2       1 <0>        -0.0656
     31 C24        10.9685    3.3205    6.6531 C.2       1 <0>        -0.1762
     32 C25        10.2544    4.2920    7.2796 C.2       1 <0>        -0.1288
     33 S1          8.6199    3.5762    7.3373 S.3       1 <0>         0.1436
     34 H2          0.2130    2.1954    0.7113 H         1 <0>         0.0602
     35 H3         -1.2538    2.0512   -0.2867 H         1 <0>         0.0716
     36 H4         -1.3385    1.7596    1.4671 H         1 <0>         0.0580
     37 H5         -2.2927   -0.5892    1.0862 H         1 <0>         0.0742
     38 H6         -2.3171   -0.1200   -0.6307 H         1 <0>         0.0887
     39 H7          0.4178   -1.5314   -1.2426 H         1 <0>         0.0613
     40 H8         -0.2945   -3.0783   -1.7603 H         1 <0>         0.0592
     41 H9         -1.0132   -1.5422   -2.3011 H         1 <0>         0.0605
     42 H10        -1.3005   -2.6209    1.8255 H         1 <0>         0.0542
     43 H11        -0.6333   -3.8157    0.6872 H         1 <0>         0.0584
     44 H12         0.2745   -2.3282    1.0498 H         1 <0>         0.0659
     45 H13        -3.9336   -1.0481   -0.1812 H         1 <0>         0.1242
     46 H14        -6.0358   -2.2173   -0.7078 H         1 <0>         0.1226
     47 H15        -5.9912   -4.5826   -1.3908 H         1 <0>         0.1226
     48 H16        -3.8445   -5.7784   -1.5481 H         1 <0>         0.1224
     49 H17        -1.7417   -4.6069   -1.0295 H         1 <0>         0.1188
     50 H18        -0.1914   -0.8192    2.2098 H         1 <0>         0.4016
     51 H19         2.2061   -1.8716    2.8438 H         1 <0>         0.1188
     52 H20         1.9859    0.9599    3.9679 H         1 <0>         0.0986
     53 H21         0.8112   -0.3583    4.1986 H         1 <0>         0.1219
     54 H22         2.3116   -0.1492    6.1626 H         1 <0>         0.1441
     55 H23         2.5495   -1.7085    5.3391 H         1 <0>         0.1409
     56 H24         5.6717   -0.8190    3.7754 H         1 <0>         0.1301
     57 H25         4.4414   -2.0857    3.9951 H         1 <0>         0.1423
     58 H26         4.2535   -1.0445    1.7531 H         1 <0>         0.1241
     59 H27         4.0350    0.5514    2.5122 H         1 <0>         0.0984
     60 H28         4.4174   -0.2735    7.1360 H         1 <0>         0.1796
     61 H29         4.8067   -1.8169    6.3394 H         1 <0>         0.1720
     62 H30        10.8766    1.3746    5.7698 H         1 <0>         0.1457
     63 H31        12.0224    3.4553    6.4592 H         1 <0>         0.1524
     64 H32        10.5888    5.2516    7.6452 H         1 <0>         0.2025
     65 H33         4.1980    0.6840    4.9317 H         1 <0>         0.4316
@<TRIPOS>BOND
     1    1    2 1
     2    1   34 1
     3    1   35 1
     4    1   36 1
     5    2    3 1
     6    2    4 1
     7    2   14 1
     8    4    5 1
     9    4   37 1
    10    4   38 1
    11    5    6 1
    12    5    7 1
    13    5    8 1
    14    6   39 1
    15    6   40 1
    16    6   41 1
    17    7   42 1
    18    7   43 1
    19    7   44 1
    20    8   13 ar
    21    8    9 ar
    22    9   10 ar
    23    9   45 1
    24   10   11 ar
    25   10   46 1
    26   11   12 ar
    27   11   47 1
    28   12   13 ar
    29   12   48 1
    30   13   49 1
    31   14   15 am
    32   14   50 1
    33   15   16 2
    34   15   17 1
    35   17   22 1
    36   17   18 1
    37   17   51 1
    38   18   19 1
    39   18   52 1
    40   18   53 1
    41   19   20 1
    42   19   54 1
    43   19   55 1
    44   20   21 1
    45   20   23 1
    46   20   65 1
    47   21   22 1
    48   21   56 1
    49   21   57 1
    50   22   58 1
    51   22   59 1
    52   23   24 1
    53   23   60 1
    54   23   61 1
    55   24   28 1
    56   24   25 2
    57   25   26 1
    58   26   27 2
    59   26   29 1
    60   27   28 1
    61   29   33 1
    62   29   30 2
    63   30   31 1
    64   30   62 1
    65   31   32 2
    66   31   63 1
    67   32   33 1
    68   32   64 1
