@<TRIPOS>MOLECULE
ZINC13595579
   54    57     0     0     0
SMALL
USER_CHARGES
2-[2-[(2S)-1-[[3-[(2-chlorophenyl)methyl]-1,2,4-oxadiazol-5-yl]methyl]-2-piperidyl]ethyl]pyridine
@<TRIPOS>ATOM
      1 C1         12.0781    0.1859   -4.3104 C.ar      1 <0>        -0.1111
      2 C2         12.6029    1.4293   -4.0100 C.ar      1 <0>        -0.0964
      3 C3         12.3388    2.0137   -2.7859 C.ar      1 <0>        -0.1112
      4 C4         11.5494    1.3539   -1.8605 C.ar      1 <0>        -0.0271
      5 C5         11.0250    0.1097   -2.1615 C.ar      1 <0>        -0.0923
      6 C6         11.2942   -0.4761   -3.3843 C.ar      1 <0>        -0.0922
      7 C7         10.1656   -0.6097   -1.1540 C.3       1 <0>         0.0008
      8 C8          8.7401   -0.1380   -1.2819 C.2       1 <0>         0.1918
      9 N1          8.1823    0.8967   -0.6283 N.2       1 <0>        -0.4177
     10 C9          6.9376    0.9435   -1.0383 C.2       1 <0>         0.0976
     11 O1          6.7824   -0.0466   -1.9224 O.3       1 <0>         0.1125
     12 N2          7.8252   -0.6534   -2.0475 N.2       1 <0>        -0.3421
     13 C10         5.8851    1.9294   -0.6009 C.3       1 <0>         0.0993
     14 C11         7.2075    3.8001   -1.3834 C.3       1 <0>        -0.0081
     15 C12         7.2608    4.9275   -2.4168 C.3       1 <0>        -0.1447
     16 C13         6.1109    5.9050   -2.1583 C.3       1 <0>        -0.1374
     17 C14         4.7827    5.1455   -2.2193 C.3       1 <0>        -0.1431
     18 C15         4.8012    4.0119   -1.1914 C.3       1 <0>         0.0369
     19 H1          4.9235    4.4297   -0.1921 H         1 <0>         0.1489
     20 C16         3.4834    3.2377   -1.2624 C.3       1 <0>        -0.1453
     21 C17         3.3466    2.5893   -2.6415 C.3       1 <0>        -0.0814
     22 C18         2.1160    1.7199   -2.6679 C.ar      1 <0>         0.1109
     23 C19         1.1566    1.9233   -3.6419 C.ar      1 <0>        -0.1624
     24 C20         0.0280    1.1183   -3.6570 C.ar      1 <0>        -0.0676
     25 C21        -0.0938    0.1343   -2.6875 C.ar      1 <0>        -0.1628
     26 C22         0.9065   -0.0101   -1.7452 C.ar      1 <0>         0.1073
     27 N3          1.9667    0.7741   -1.7613 N.ar      1 <0>        -0.4872
     28 Cl1        11.2177    2.0871   -0.3223 Cl        1 <0>        -0.0558
     29 H2         12.2848   -0.2704   -5.2672 H         1 <0>         0.1358
     30 H3         13.2190    1.9441   -4.7324 H         1 <0>         0.1379
     31 H4         12.7488    2.9849   -2.5514 H         1 <0>         0.1379
     32 H5         10.8885   -1.4494   -3.6176 H         1 <0>         0.1355
     33 H6         10.5297   -0.3978   -0.1487 H         1 <0>         0.1188
     34 H7         10.2111   -1.6830   -1.3382 H         1 <0>         0.1143
     35 H8          6.0818    2.2394    0.4254 H         1 <0>         0.1745
     36 H9          4.9026    1.4607   -0.6569 H         1 <0>         0.1719
     37 H10         7.3185    4.2187   -0.3831 H         1 <0>         0.1388
     38 H11         8.0165    3.0947   -1.5736 H         1 <0>         0.1261
     39 H12         8.2116    5.4538   -2.3326 H         1 <0>         0.1144
     40 H13         7.1644    4.5080   -3.4183 H         1 <0>         0.0854
     41 H14         6.2291    6.3538   -1.1721 H         1 <0>         0.0846
     42 H15         6.1197    6.6868   -2.9178 H         1 <0>         0.0965
     43 H16         4.6467    4.7294   -3.2175 H         1 <0>         0.0905
     44 H17         3.9629    5.8277   -1.9940 H         1 <0>         0.1173
     45 H18         2.6508    3.9218   -1.0984 H         1 <0>         0.1175
     46 H19         3.4747    2.4641   -0.4947 H         1 <0>         0.1037
     47 H20         4.2267    1.9795   -2.8452 H         1 <0>         0.0691
     48 H21         3.2590    3.3661   -3.4011 H         1 <0>         0.0986
     49 H22         1.2847    2.6993   -4.3820 H         1 <0>         0.1362
     50 H23        -0.7378    1.2540   -4.4063 H         1 <0>         0.1404
     51 H24        -0.9595   -0.5112   -2.6694 H         1 <0>         0.1414
     52 H25         0.8170   -0.7711   -0.9841 H         1 <0>         0.1617
     53 N4          5.9152    3.0936   -1.5102 N.4       1 <0>        -0.3943
     54 H26         5.8091    2.7643   -2.4769 H         1 <0>         0.4253
@<TRIPOS>BOND
     1    1    6 ar
     2    1    2 ar
     3    1   29 1
     4    2    3 ar
     5    2   30 1
     6    3    4 ar
     7    3   31 1
     8    4    5 ar
     9    4   28 1
    10    5    6 ar
    11    5    7 1
    12    6   32 1
    13    7    8 1
    14    7   33 1
    15    7   34 1
    16    8   12 2
    17    8    9 1
    18    9   10 2
    19   10   11 1
    20   10   13 1
    21   11   12 1
    22   13   35 1
    23   13   36 1
    24   13   53 1
    25   14   15 1
    26   14   37 1
    27   14   38 1
    28   14   53 1
    29   15   16 1
    30   15   39 1
    31   15   40 1
    32   16   17 1
    33   16   41 1
    34   16   42 1
    35   17   18 1
    36   17   43 1
    37   17   44 1
    38   18   19 1
    39   18   20 1
    40   18   53 1
    41   20   21 1
    42   20   45 1
    43   20   46 1
    44   21   22 1
    45   21   47 1
    46   21   48 1
    47   22   27 ar
    48   22   23 ar
    49   23   24 ar
    50   23   49 1
    51   24   25 ar
    52   24   50 1
    53   25   26 ar
    54   25   51 1
    55   26   27 ar
    56   26   52 1
    57   53   54 1
