@<TRIPOS>MOLECULE
ZINC15683886
   64    66     0     0     0
SMALL
USER_CHARGES
4-methyl-N-[(1R)-3-methyl-1-[[[5-(phenoxymethyl)furan-2-carbonyl]amino]carbamoyl]butyl]benzenesulfonamide
@<TRIPOS>ATOM
      1 C1          5.8233   12.8065    4.2660 C.3       1 <0>        -0.1275
      2 C2          4.5773   12.2130    3.6608 C.ar      1 <0>        -0.0236
      3 C3          3.6634   13.0293    3.0208 C.ar      1 <0>        -0.1399
      4 C4          2.5205   12.4850    2.4656 C.ar      1 <0>        -0.0090
      5 C5          2.2918   11.1242    2.5495 C.ar      1 <0>        -0.6870
      6 C6          3.2033   10.3086    3.1936 C.ar      1 <0>        -0.0202
      7 C7          4.3484   10.8524    3.7451 C.ar      1 <0>        -0.1401
      8 S1          0.8350   10.4304    1.8418 S.o2      1 <0>         2.6880
      9 O1         -0.1483   11.4562    1.8491 O.2       1 <0>        -0.9498
     10 O2          0.6321    9.1761    2.4780 O.2       1 <0>        -0.9427
     11 N1          1.1692   10.1064    0.2525 N.pl3     1 <0>        -1.0901
     12 C8          2.2305    9.1579   -0.0942 C.3       1 <0>         0.1561
     13 H1          2.9640    9.1230    0.7113 H         1 <0>         0.1176
     14 C9          2.9138    9.6074   -1.3872 C.3       1 <0>        -0.1216
     15 C10         3.6441   10.9298   -1.1450 C.3       1 <0>        -0.0927
     16 C11         4.4721   11.2889   -2.3804 C.3       1 <0>        -0.1490
     17 C12         2.6213   12.0358   -0.8775 C.3       1 <0>        -0.1573
     18 C13         1.6349    7.7876   -0.2909 C.2       1 <0>         0.4975
     19 O3          0.4414    7.6199   -0.1549 O.2       1 <0>        -0.5059
     20 N2          2.4284    6.7485   -0.6181 N.am      1 <0>        -0.5196
     21 N3          1.8747    5.4746   -0.8010 N.am      1 <0>        -0.5103
     22 C14         2.6683    4.4356   -1.1281 C.2       1 <0>         0.6092
     23 O4          3.8658    4.6039   -1.2646 O.2       1 <0>        -0.5151
     24 C15         2.0887    3.1021   -1.3195 C.2       1 <0>        -0.0646
     25 C16         2.7749    1.9689   -1.6506 C.2       1 <0>        -0.1046
     26 C17         1.8305    0.9334   -1.7282 C.2       1 <0>        -0.1838
     27 C18         0.6237    1.4742   -1.4503 C.2       1 <0>         0.0187
     28 O5          0.7841    2.7799   -1.1989 O.3       1 <0>        -0.1550
     29 C19        -0.6865    0.7300   -1.4241 C.3       1 <0>         0.1377
     30 O6         -0.9208    0.2242   -0.1082 O.3       1 <0>        -0.3093
     31 C20        -2.0683   -0.4769    0.0880 C.ar      1 <0>         0.1269
     32 C21        -2.9534   -0.6692   -0.9628 C.ar      1 <0>        -0.2096
     33 C22        -4.1162   -1.3875   -0.7622 C.ar      1 <0>        -0.0793
     34 C23        -4.4042   -1.9041    0.4875 C.ar      1 <0>        -0.1552
     35 C24        -3.5264   -1.7090    1.5379 C.ar      1 <0>        -0.0792
     36 C25        -2.3593   -0.9966    1.3409 C.ar      1 <0>        -0.1480
     37 H2          5.6259   13.0886    5.3002 H         1 <0>         0.0809
     38 H3          6.6271   12.0708    4.2372 H         1 <0>         0.0740
     39 H4          6.1180   13.6892    3.6985 H         1 <0>         0.0740
     40 H5          3.8422   14.0924    2.9550 H         1 <0>         0.1338
     41 H6          1.8063   13.1227    1.9660 H         1 <0>         0.1401
     42 H7          3.0225    9.2461    3.2630 H         1 <0>         0.1400
     43 H8          5.0625   10.2146    4.2447 H         1 <0>         0.1340
     44 H9          0.6623   10.5447   -0.4488 H         1 <0>         0.4277
     45 H10         3.6305    8.8489   -1.7021 H         1 <0>         0.0870
     46 H11         2.1636    9.7440   -2.1661 H         1 <0>         0.0866
     47 H12         4.3032   10.8282   -0.2828 H         1 <0>         0.0758
     48 H13         3.8130   11.3905   -3.2426 H         1 <0>         0.0572
     49 H14         4.9924   12.2310   -2.2079 H         1 <0>         0.0585
     50 H15         5.2008   10.5010   -2.5710 H         1 <0>         0.0571
     51 H16         1.8714   12.0362   -1.6685 H         1 <0>         0.0602
     52 H17         2.1366   11.8580    0.0825 H         1 <0>         0.0520
     53 H18         3.1271   13.0010   -0.8559 H         1 <0>         0.0584
     54 H19         3.3829    6.8827   -0.7269 H         1 <0>         0.4334
     55 H20         0.9202    5.3405   -0.6922 H         1 <0>         0.4390
     56 H21         3.8382    1.8857   -1.8204 H         1 <0>         0.1693
     57 H22         2.0301   -0.1002   -1.9692 H         1 <0>         0.1655
     58 H23        -1.4944    1.4067   -1.7024 H         1 <0>         0.0869
     59 H24        -0.6475   -0.0993   -2.1304 H         1 <0>         0.1031
     60 H25        -2.7312   -0.2617   -1.9380 H         1 <0>         0.1284
     61 H26        -4.8034   -1.5413   -1.5811 H         1 <0>         0.1268
     62 H27        -5.3161   -2.4613    0.6435 H         1 <0>         0.1255
     63 H28        -3.7533   -2.1141    2.5130 H         1 <0>         0.1313
     64 H29        -1.6742   -0.8442    2.1618 H         1 <0>         0.1319
@<TRIPOS>BOND
     1    1    2 1
     2    1   37 1
     3    1   38 1
     4    1   39 1
     5    2    7 ar
     6    2    3 ar
     7    3    4 ar
     8    3   40 1
     9    4    5 ar
    10    4   41 1
    11    5    6 ar
    12    5    8 1
    13    6    7 ar
    14    6   42 1
    15    7   43 1
    16    8    9 2
    17    8   10 2
    18    8   11 1
    19   11   12 1
    20   11   44 1
    21   12   13 1
    22   12   14 1
    23   12   18 1
    24   14   15 1
    25   14   45 1
    26   14   46 1
    27   15   16 1
    28   15   17 1
    29   15   47 1
    30   16   48 1
    31   16   49 1
    32   16   50 1
    33   17   51 1
    34   17   52 1
    35   17   53 1
    36   18   19 2
    37   18   20 am
    38   20   21 1
    39   20   54 1
    40   21   22 am
    41   21   55 1
    42   22   23 2
    43   22   24 1
    44   24   28 1
    45   24   25 2
    46   25   26 1
    47   25   56 1
    48   26   27 2
    49   26   57 1
    50   27   28 1
    51   27   29 1
    52   29   30 1
    53   29   58 1
    54   29   59 1
    55   30   31 1
    56   31   36 ar
    57   31   32 ar
    58   32   33 ar
    59   32   60 1
    60   33   34 ar
    61   33   61 1
    62   34   35 ar
    63   34   62 1
    64   35   36 ar
    65   35   63 1
    66   36   64 1
