@<TRIPOS>MOLECULE
ZINC16458842
   68    70     0     0     0
SMALL
USER_CHARGES
N-[2-[[1-[(2-chlorophenyl)methyl]pyrrol-2-yl]methyl-isobutyl-amino]-2-oxo-ethyl]-N-sec-butyl-thiophene-2-carboxamide
@<TRIPOS>ATOM
      1 C1         -7.3542    2.2959   -0.3230 C.3       1 <0>        -0.1548
      2 C2         -6.6054    1.4886    0.7393 C.3       1 <0>        -0.1329
      3 C3         -5.9226    2.4449    1.7192 C.3       1 <0>         0.1214
      4 H1         -6.6730    3.0813    2.1883 H         1 <0>         0.1001
      5 C4         -5.1938    1.6377    2.7954 C.3       1 <0>        -0.1609
      6 N1         -4.9583    3.2781    0.9967 N.am      1 <0>        -0.5833
      7 C5         -3.9348    2.6522    0.1559 C.3       1 <0>         0.0994
      8 C6         -2.6493    2.5339    0.9334 C.2       1 <0>         0.5053
      9 O1         -2.5974    2.9205    2.0818 O.2       1 <0>        -0.5105
     10 N2         -1.5573    1.9984    0.3526 N.am      1 <0>        -0.6068
     11 C7         -0.3076    1.8834    1.1085 C.3       1 <0>         0.1910
     12 C8          0.4451    3.1869    1.0359 C.2       1 <0>        -0.0145
     13 C9          0.3798    4.1887    1.9362 C.2       1 <0>        -0.1556
     14 C10         1.2374    5.2135    1.4897 C.2       1 <0>        -0.2039
     15 C11         1.7878    4.8023    0.3293 C.2       1 <0>         0.0052
     16 N3          1.3053    3.5591    0.0457 N.pl3     1 <0>        -0.4338
     17 C12         1.6531    2.7561   -1.1292 C.3       1 <0>         0.1447
     18 C13         2.7381    3.4520   -1.9100 C.ar      1 <0>        -0.1054
     19 C14         4.0576    3.0730   -1.7485 C.ar      1 <0>        -0.0845
     20 C15         5.0529    3.7116   -2.4642 C.ar      1 <0>        -0.1150
     21 C16         4.7293    4.7291   -3.3426 C.ar      1 <0>        -0.0942
     22 C17         3.4105    5.1086   -3.5052 C.ar      1 <0>        -0.1118
     23 C18         2.4132    4.4665   -2.7926 C.ar      1 <0>        -0.0195
     24 Cl1         0.7555    4.9378   -3.0016 Cl        1 <0>        -0.0534
     25 C19        -1.6200    1.5315   -1.0346 C.3       1 <0>         0.1062
     26 C20        -2.1761    0.1065   -1.0684 C.3       1 <0>        -0.1156
     27 C21        -2.3733   -0.3297   -2.5216 C.3       1 <0>        -0.1482
     28 C22        -1.1918   -0.8415   -0.3804 C.3       1 <0>        -0.1495
     29 C23        -5.0126    4.6203    1.1057 C.2       1 <0>         0.6140
     30 O2         -4.2754    5.3158    0.4320 O.2       1 <0>        -0.5177
     31 C24        -5.9597    5.2424    2.0355 C.2       1 <0>        -0.2343
     32 C25        -6.5217    6.5088    1.9932 C.2       1 <0>        -0.0746
     33 C26        -7.3905    6.8412    3.0025 C.2       1 <0>        -0.1754
     34 C27        -7.6543    5.9318    3.9772 C.2       1 <0>        -0.2028
     35 S1         -6.6956    4.5642    3.5125 S.3       1 <0>         0.1623
     36 H2         -8.1620    2.8556    0.1485 H         1 <0>         0.0558
     37 H3         -6.6651    2.9891   -0.8053 H         1 <0>         0.0557
     38 H4         -7.7691    1.6180   -1.0690 H         1 <0>         0.0588
     39 H5         -5.8532    0.8639    0.2576 H         1 <0>         0.0676
     40 H6         -7.3105    0.8570    1.2796 H         1 <0>         0.0818
     41 H7         -4.6616    2.3171    3.4611 H         1 <0>         0.0729
     42 H8         -5.9183    1.0599    3.3693 H         1 <0>         0.0682
     43 H9         -4.4822    0.9609    2.3224 H         1 <0>         0.0564
     44 H10        -3.7683    3.2647   -0.7303 H         1 <0>         0.1086
     45 H11        -4.2696    1.6598   -0.1460 H         1 <0>         0.1115
     46 H12        -0.5327    1.6512    2.1494 H         1 <0>         0.1009
     47 H13         0.3027    1.0871    0.6824 H         1 <0>         0.0810
     48 H14        -0.2182    4.2021    2.8354 H         1 <0>         0.1343
     49 H15         1.4175    6.1568    1.9838 H         1 <0>         0.1317
     50 H16         2.4893    5.3616   -0.2719 H         1 <0>         0.1516
     51 H17         2.0078    1.7768   -0.8080 H         1 <0>         0.0906
     52 H18         0.7725    2.6346   -1.7600 H         1 <0>         0.0909
     53 H19         4.3110    2.2780   -1.0628 H         1 <0>         0.1338
     54 H20         6.0837    3.4153   -2.3375 H         1 <0>         0.1339
     55 H21         5.5073    5.2272   -3.9020 H         1 <0>         0.1362
     56 H22         3.1578    5.9032   -4.1916 H         1 <0>         0.1376
     57 H23        -0.6194    1.5414   -1.4668 H         1 <0>         0.0791
     58 H24        -2.2710    2.1893   -1.6103 H         1 <0>         0.0777
     59 H25        -3.1330    0.0775   -0.5473 H         1 <0>         0.0729
     60 H26        -1.4050   -0.3844   -3.0191 H         1 <0>         0.0578
     61 H27        -2.8499   -1.3096   -2.5453 H         1 <0>         0.0611
     62 H28        -3.0055    0.3944   -3.0356 H         1 <0>         0.0578
     63 H29        -0.9971   -0.4904    0.6330 H         1 <0>         0.0584
     64 H30        -1.6190   -1.8436   -0.3420 H         1 <0>         0.0579
     65 H31        -0.2580   -0.8659   -0.9421 H         1 <0>         0.0547
     66 H32        -6.2865    7.2035    1.2004 H         1 <0>         0.1452
     67 H33        -7.8592    7.8140    3.0216 H         1 <0>         0.1386
     68 H34        -8.3065    6.0346    4.8318 H         1 <0>         0.1883
@<TRIPOS>BOND
     1    1    2 1
     2    1   36 1
     3    1   37 1
     4    1   38 1
     5    2    3 1
     6    2   39 1
     7    2   40 1
     8    3    4 1
     9    3    5 1
    10    3    6 1
    11    5   41 1
    12    5   42 1
    13    5   43 1
    14    6    7 1
    15    6   29 am
    16    7    8 1
    17    7   44 1
    18    7   45 1
    19    8    9 2
    20    8   10 am
    21   10   11 1
    22   10   25 1
    23   11   12 1
    24   11   46 1
    25   11   47 1
    26   12   16 1
    27   12   13 2
    28   13   14 1
    29   13   48 1
    30   14   15 2
    31   14   49 1
    32   15   16 1
    33   15   50 1
    34   16   17 1
    35   17   18 1
    36   17   51 1
    37   17   52 1
    38   18   23 ar
    39   18   19 ar
    40   19   20 ar
    41   19   53 1
    42   20   21 ar
    43   20   54 1
    44   21   22 ar
    45   21   55 1
    46   22   23 ar
    47   22   56 1
    48   23   24 1
    49   25   26 1
    50   25   57 1
    51   25   58 1
    52   26   27 1
    53   26   28 1
    54   26   59 1
    55   27   60 1
    56   27   61 1
    57   27   62 1
    58   28   63 1
    59   28   64 1
    60   28   65 1
    61   29   30 2
    62   29   31 1
    63   31   35 1
    64   31   32 2
    65   32   33 1
    66   32   66 1
    67   33   34 2
    68   33   67 1
    69   34   35 1
    70   34   68 1
