@<TRIPOS>MOLECULE
ZINC58228638
   39    40     0     0     0
SMALL
USER_CHARGES

@<TRIPOS>ATOM
      1 C1          2.2532    0.9239   -0.9669 C.3       1 <0>         0.0853
      2 N1          1.6831   -0.4029   -0.7200 N.am      1 <0>        -0.7254
      3 C2          1.7513   -0.9472    0.5110 C.2       1 <0>         0.5680
      4 O1          2.2860   -0.3371    1.4168 O.2       1 <0>        -0.5388
      5 C3          1.1773   -2.2832    0.7596 C.ar      1 <0>        -0.1602
      6 C4          0.4765   -2.9458   -0.2509 C.ar      1 <0>        -0.0561
      7 C5         -0.0577   -4.1946   -0.0120 C.ar      1 <0>        -0.0592
      8 C6          0.0970   -4.7964    1.2275 C.ar      1 <0>        -0.0581
      9 C7          0.7872   -4.1530    2.2348 C.ar      1 <0>        -0.1182
     10 C8          1.3370   -2.8980    2.0101 C.ar      1 <0>         0.2182
     11 N2          2.0393   -2.2499    3.0240 N.am      1 <0>        -0.6559
     12 C9          2.7877   -2.9638    3.8881 C.2       1 <0>         0.5134
     13 O2          2.9271   -4.1577    3.7267 O.2       1 <0>        -0.5177
     14 C10         3.4511   -2.2786    5.0549 C.3       1 <0>         0.1234
     15 N3          4.2006   -3.2641    5.8381 N.am      1 <0>        -0.7362
     16 C11         4.8793   -2.8769    6.9363 C.2       1 <0>         0.7130
     17 O3          4.8695   -1.7098    7.2769 O.2       1 <0>        -0.5858
     18 N4          5.5688   -3.7835    7.6568 N.am      1 <0>        -0.7147
     19 C12         6.3065   -3.3626    8.8505 C.3       1 <0>         0.0981
     20 C13         7.7156   -3.9261    9.0454 C.3       1 <0>        -0.1947
     21 C14         6.5666   -4.4168    9.9285 C.3       1 <0>        -0.1898
     22 Cl1        -0.9284   -5.0166   -1.2689 Cl        1 <0>        -0.0575
     23 H1          3.3202    0.9080   -0.7448 H         1 <0>         0.0645
     24 H2          2.1036    1.1949   -2.0120 H         1 <0>         0.0801
     25 H3          1.7598    1.6560   -0.3276 H         1 <0>         0.0653
     26 H4          1.2566   -0.8896   -1.4426 H         1 <0>         0.4039
     27 H5          0.3528   -2.4806   -1.2177 H         1 <0>         0.1414
     28 H6         -0.3253   -5.7742    1.4060 H         1 <0>         0.1455
     29 H7          0.9035   -4.6282    3.1976 H         1 <0>         0.1518
     30 H8          1.9896   -1.2848    3.1080 H         1 <0>         0.4307
     31 H9          4.1333   -1.5126    4.6864 H         1 <0>         0.1069
     32 H10         2.6912   -1.8160    5.6846 H         1 <0>         0.1069
     33 H11         4.2084   -4.1952    5.5663 H         1 <0>         0.4085
     34 H12         5.5766   -4.7146    7.3851 H         1 <0>         0.3995
     35 H13         6.1229   -2.3401    9.1804 H         1 <0>         0.1407
     36 H14         8.0937   -4.6099    8.2854 H         1 <0>         0.0969
     37 H15         8.4594   -3.2742    9.5034 H         1 <0>         0.1039
     38 H16         6.5545   -4.0877   10.9675 H         1 <0>         0.1053
     39 H17         6.1888   -5.4234    9.7495 H         1 <0>         0.0973
@<TRIPOS>BOND
     1    1    2 1
     2    1   23 1
     3    1   24 1
     4    1   25 1
     5    2    3 am
     6    2   26 1
     7    3    4 2
     8    3    5 1
     9    5   10 ar
    10    5    6 ar
    11    6    7 ar
    12    6   27 1
    13    7    8 ar
    14    7   22 1
    15    8    9 ar
    16    8   28 1
    17    9   10 ar
    18    9   29 1
    19   10   11 1
    20   11   12 am
    21   11   30 1
    22   12   13 2
    23   12   14 1
    24   14   15 1
    25   14   31 1
    26   14   32 1
    27   15   16 am
    28   15   33 1
    29   16   17 2
    30   16   18 am
    31   18   19 1
    32   18   34 1
    33   19   21 1
    34   19   20 1
    35   19   35 1
    36   20   21 1
    37   20   36 1
    38   20   37 1
    39   21   38 1
    40   21   39 1
