@<TRIPOS>MOLECULE
ZINC43734491
   47    50     0     0     0
SMALL
USER_CHARGES

@<TRIPOS>ATOM
      1 C1         -0.4246    0.2056    0.6144 C.3       1 <0>        -0.1495
      2 C2          0.1105   -1.0887   -0.0015 C.3       1 <0>        -0.0878
      3 C3          0.7964   -0.7777   -1.3069 C.ar      1 <0>        -0.1076
      4 C4          0.1006   -0.8819   -2.4955 C.ar      1 <0>        -0.0977
      5 C5          0.7290   -0.5963   -3.6935 C.ar      1 <0>        -0.1314
      6 C6          2.0556   -0.2055   -3.7061 C.ar      1 <0>        -0.1053
      7 C7          2.7571   -0.0998   -2.5214 C.ar      1 <0>        -0.1139
      8 C8          2.1271   -0.3805   -1.3156 C.ar      1 <0>         0.1582
      9 N1          2.8327   -0.2684   -0.1135 N.pl3     1 <0>        -0.6193
     10 C9          4.1977   -0.4797   -0.0917 C.ar      1 <0>         0.6285
     11 N2          4.8884   -0.2594    1.0248 N.ar      1 <0>        -0.6213
     12 C10         6.1941   -0.4611    1.0467 C.ar      1 <0>         0.4059
     13 N3          6.8196   -0.8817   -0.0389 N.ar      1 <0>        -0.6050
     14 C11         6.1359   -1.1041   -1.1590 C.ar      1 <0>         0.6294
     15 N4          4.8220   -0.9081   -1.1832 N.ar      1 <0>        -0.6314
     16 N5          6.7899   -1.5432   -2.2920 N.pl3     1 <0>        -0.7990
     17 C12         6.9721   -0.2105    2.3128 C.3       1 <0>         0.1692
     18 N6          7.0154   -1.4385    3.1105 N.am      1 <0>        -0.5432
     19 C13         6.0372   -1.6847    4.0211 C.2       1 <0>         0.3950
     20 N7          6.0052   -2.7485    4.7645 N.2       1 <0>        -0.5125
     21 C14         6.9645   -3.7042    4.6804 C.ar      1 <0>         0.1657
     22 C15         8.0226   -3.5338    3.7603 C.ar      1 <0>        -0.1759
     23 C16         8.0263   -2.3201    2.9298 C.2       1 <0>         0.5512
     24 O1          8.9063   -2.1147    2.1142 O.2       1 <0>        -0.4745
     25 C17         9.0193   -4.5013    3.6552 C.ar      1 <0>        -0.0250
     26 C18         8.9642   -5.6236    4.4549 C.ar      1 <0>        -0.0477
     27 C19         7.9252   -5.7949    5.3612 C.ar      1 <0>        -0.0575
     28 C20         6.9299   -4.8494    5.4801 C.ar      1 <0>        -0.0218
     29 Cl1         5.6395   -5.0797    6.6183 Cl        1 <0>        -0.0245
     30 Cl2        10.2034   -6.8328    4.3277 Cl        1 <0>        -0.0421
     31 H1          0.4029    0.8921    0.7933 H         1 <0>         0.0515
     32 H2         -1.1373    0.6661   -0.0698 H         1 <0>         0.0605
     33 H3         -0.9207   -0.0193    1.5586 H         1 <0>         0.0626
     34 H4          0.8232   -1.5491    0.6827 H         1 <0>         0.0684
     35 H5         -0.7170   -1.7752   -0.1804 H         1 <0>         0.0784
     36 H6         -0.9354   -1.1871   -2.4891 H         1 <0>         0.1262
     37 H7          0.1828   -0.6789   -4.6216 H         1 <0>         0.1233
     38 H8          2.5436    0.0168   -4.6436 H         1 <0>         0.1242
     39 H9          3.7931    0.2050   -2.5319 H         1 <0>         0.1389
     40 H10         2.3638   -0.0424    0.7049 H         1 <0>         0.4267
     41 H11         7.7485   -1.6900   -2.2725 H         1 <0>         0.4219
     42 H12         6.2910   -1.7051   -3.1080 H         1 <0>         0.4192
     43 H13         7.9875    0.0951    2.0608 H         1 <0>         0.1338
     44 H14         6.4871    0.5789    2.8871 H         1 <0>         0.1325
     45 H15         5.2461   -0.9579    4.1324 H         1 <0>         0.2109
     46 H16         9.8292   -4.3737    2.9523 H         1 <0>         0.1560
     47 H17         7.8972   -6.6796    5.9799 H         1 <0>         0.1563
@<TRIPOS>BOND
     1    1    2 1
     2    1   31 1
     3    1   32 1
     4    1   33 1
     5    2    3 1
     6    2   34 1
     7    2   35 1
     8    3    8 ar
     9    3    4 ar
    10    4    5 ar
    11    4   36 1
    12    5    6 ar
    13    5   37 1
    14    6    7 ar
    15    6   38 1
    16    7    8 ar
    17    7   39 1
    18    8    9 1
    19    9   10 1
    20    9   40 1
    21   10   15 ar
    22   10   11 ar
    23   11   12 ar
    24   12   13 ar
    25   12   17 1
    26   13   14 ar
    27   14   15 ar
    28   14   16 1
    29   16   41 1
    30   16   42 1
    31   17   18 1
    32   17   43 1
    33   17   44 1
    34   18   23 am
    35   18   19 1
    36   19   20 2
    37   19   45 1
    38   20   21 1
    39   21   28 ar
    40   21   22 ar
    41   22   23 1
    42   22   25 ar
    43   23   24 2
    44   25   26 ar
    45   25   46 1
    46   26   27 ar
    47   26   30 1
    48   27   28 ar
    49   27   47 1
    50   28   29 1
