@<TRIPOS>MOLECULE
ZINC63883326
   48    51     0     0     0
SMALL
USER_CHARGES

@<TRIPOS>ATOM
      1 C1         -0.0184    1.5028    0.0103 C.3       1 <0>        -0.1395
      2 C2          0.0021   -0.0041    0.0020 C.2       1 <0>         0.1046
      3 C3          0.0087   -0.8113   -1.0833 C.ar      1 <0>        -0.1880
      4 C4         -0.0018   -0.5385   -2.5254 C.ar      1 <0>         0.0230
      5 C5          0.0083   -1.5785   -3.3899 C.ar      1 <0>        -0.1446
      6 C6          0.0282   -2.9073   -2.9441 C.ar      1 <0>         0.0667
      7 C7          0.0389   -3.2372   -1.6352 C.ar      1 <0>        -0.2049
      8 C8          0.0302   -2.2230   -0.6382 C.ar      1 <0>         0.3386
      9 N1          0.0366   -2.2861    0.6712 N.pl3     1 <0>        -0.5843
     10 C9          0.0259   -0.9197    1.2055 C.3       1 <0>         0.1488
     11 H1         -0.8647   -0.7635    1.8141 H         1 <0>         0.1786
     12 C10         1.2661   -0.6693    2.0242 C.ar      1 <0>        -0.1591
     13 C11         2.3929   -1.4452    1.8272 C.ar      1 <0>        -0.0792
     14 C12         3.5306   -1.2158    2.5779 C.ar      1 <0>        -0.1152
     15 C13         3.5429   -0.2100    3.5267 C.ar      1 <0>        -0.0595
     16 C14         2.4178    0.5672    3.7250 C.ar      1 <0>        -0.1385
     17 C15         1.2792    0.3417    2.9698 C.ar      1 <0>         0.1285
     18 F1          0.1801    1.1040    3.1596 F         1 <0>        -0.1262
     19 C16        -0.0025   -1.3017   -4.8712 C.3       1 <0>         0.1554
     20 N2          1.3751   -1.1930   -5.3577 N.am      1 <0>        -0.7312
     21 C17         1.6118   -0.9462   -6.6614 C.2       1 <0>         0.5077
     22 O1          0.6844   -0.8140   -7.4317 O.2       1 <0>        -0.5105
     23 C18         3.0289   -0.8344   -7.1619 C.3       1 <0>         0.1171
     24 H2          3.6383   -0.2817   -6.4470 H         1 <0>         0.1071
     25 C19         3.6247   -2.2399   -7.3982 C.3       1 <0>        -0.1216
     26 C20         4.5107   -2.0015   -8.6429 C.3       1 <0>        -0.1564
     27 C21         3.8826   -0.8042   -9.3216 C.2       1 <0>         0.5219
     28 O2          4.0953   -0.4636  -10.4660 O.2       1 <0>        -0.5156
     29 N3          3.0543   -0.1711   -8.4708 N.am      1 <0>        -0.7157
     30 H3          1.0042    1.8801    0.0026 H         1 <0>         0.1247
     31 H4         -0.5455    1.8639   -0.8728 H         1 <0>         0.1122
     32 H5         -0.5286    1.8543    0.9071 H         1 <0>         0.1100
     33 H6         -0.0178    0.4777   -2.8909 H         1 <0>         0.1643
     34 H7          0.0348   -3.6996   -3.6779 H         1 <0>         0.1630
     35 H8          0.0538   -4.2770   -1.3435 H         1 <0>         0.1646
     36 H9          2.3843   -2.2313    1.0867 H         1 <0>         0.1297
     37 H10         4.4104   -1.8228    2.4236 H         1 <0>         0.1446
     38 H11         4.4322   -0.0321    4.1132 H         1 <0>         0.1495
     39 H12         2.4276    1.3525    4.4664 H         1 <0>         0.1537
     40 H13        -0.5077   -2.1167   -5.3895 H         1 <0>         0.0924
     41 H14        -0.5301   -0.3672   -5.0623 H         1 <0>         0.0911
     42 H15         2.1168   -1.2987   -4.7416 H         1 <0>         0.4040
     43 H16         4.2262   -2.5570   -6.5463 H         1 <0>         0.1017
     44 H17         2.8398   -2.9656   -7.6113 H         1 <0>         0.0892
     45 H18         5.5349   -1.7773   -8.3448 H         1 <0>         0.1128
     46 H19         4.4854   -2.8699   -9.3012 H         1 <0>         0.1109
     47 H20         2.5397    0.6205   -8.6933 H         1 <0>         0.4174
     48 H21         0.0501   -3.1001    1.1987 H         1 <0>         0.4563
@<TRIPOS>BOND
     1    1    2 1
     2    1   30 1
     3    1   31 1
     4    1   32 1
     5    2   10 1
     6    2    3 2
     7    3    8 ar
     8    3    4 ar
     9    4    5 ar
    10    4   33 1
    11    5    6 ar
    12    5   19 1
    13    6    7 ar
    14    6   34 1
    15    7    8 ar
    16    7   35 1
    17    8    9 2
    18    9   10 1
    19    9   48 1
    20   10   11 1
    21   10   12 1
    22   12   17 ar
    23   12   13 ar
    24   13   14 ar
    25   13   36 1
    26   14   15 ar
    27   14   37 1
    28   15   16 ar
    29   15   38 1
    30   16   17 ar
    31   16   39 1
    32   17   18 1
    33   19   20 1
    34   19   40 1
    35   19   41 1
    36   20   21 am
    37   20   42 1
    38   21   22 2
    39   21   23 1
    40   23   24 1
    41   23   29 1
    42   23   25 1
    43   25   26 1
    44   25   43 1
    45   25   44 1
    46   26   27 1
    47   26   45 1
    48   26   46 1
    49   27   28 2
    50   27   29 am
    51   29   47 1
