@<TRIPOS>MOLECULE
ZINC04590485
   42    44     0     0     0
SMALL
USER_CHARGES
2-amino-4-(2-hydroxy-5-nitro-phenyl)-7,7-dimethyl-5-oxo-6,8-dihydro-4H-chromene-3-carbonitrile
@<TRIPOS>ATOM
      1 C1          1.6480   -1.2865    5.7996 C.3       1 <0>        -0.1535
      2 C2          3.0010   -1.3970    5.0938 C.3       1 <0>        -0.0566
      3 C3          3.6781   -0.0260    5.0629 C.3       1 <0>        -0.0645
      4 C4          2.8178    0.9496    4.2941 C.2       1 <0>         0.1374
      5 C5          2.0398    0.5276    3.2807 C.2       1 <0>        -0.2367
      6 C6          1.1902    1.5057    2.5057 C.3       1 <0>         0.1076
      7 H1          0.2141    1.0604    2.3131 H         1 <0>         0.1111
      8 C7          1.0133    2.7731    3.2944 C.2       1 <0>        -0.2417
      9 C8          1.8520    3.0663    4.3176 C.2       1 <0>         0.4059
     10 O1          2.8605    2.2466    4.6521 O.3       1 <0>        -0.2396
     11 N1          1.6657    4.2265    5.0275 N.pl3     1 <0>        -0.8374
     12 C9         -0.0479    3.6756    2.9628 C.1       1 <0>         0.2840
     13 N2         -0.8898    4.3916    2.6997 N.1       1 <0>        -0.4537
     14 C10         1.8626    1.8224    1.1947 C.ar      1 <0>        -0.2082
     15 C11         3.1192    2.3967    1.1831 C.ar      1 <0>         0.0013
     16 C12         3.7343    2.6924   -0.0191 C.ar      1 <0>        -0.1851
     17 C13         3.0961    2.4095   -1.2129 C.ar      1 <0>        -0.0128
     18 C14         1.8423    1.8301   -1.2067 C.ar      1 <0>        -0.2531
     19 C15         1.2228    1.5324   -0.0014 C.ar      1 <0>         0.3188
     20 N3          5.0782    3.3123   -0.0286 N.pl3     1 <0>         0.0730
     21 O2          5.6212    3.5728   -1.0873 O.2       1 <0>        -0.2344
     22 O3          5.6412    3.5619    1.0222 O.3       1 <0>        -0.2336
     23 C16         1.9906   -0.8305    2.9121 C.2       1 <0>         0.3895
     24 O4          1.2887   -1.1707    1.9808 O.2       1 <0>        -0.4203
     25 C17         2.7920   -1.8679    3.6505 C.3       1 <0>        -0.1503
     26 C18         3.8886   -2.3970    5.8374 C.3       1 <0>        -0.1385
     27 H2          1.1598   -2.2611    5.8039 H         1 <0>         0.0629
     28 H3          1.7997   -0.9515    6.8256 H         1 <0>         0.0617
     29 H4          1.0205   -0.5683    5.2719 H         1 <0>         0.0617
     30 H5          4.6504   -0.1125    4.5780 H         1 <0>         0.1038
     31 H6          3.8128    0.3347    6.0827 H         1 <0>         0.0958
     32 H7          0.9398    4.8263    4.7947 H         1 <0>         0.4225
     33 H8          2.2600    4.4464    5.7619 H         1 <0>         0.4063
     34 H9          3.6196    2.6186    2.1141 H         1 <0>         0.1153
     35 H10         3.5787    2.6414   -2.1508 H         1 <0>         0.1217
     36 H11         1.3446    1.6087   -2.1393 H         1 <0>         0.1185
     37 H12         2.3010   -2.7390    3.6519 H         1 <0>         0.0883
     38 H13         3.7592   -1.9962    3.1646 H         1 <0>         0.1010
     39 H14         4.8541   -2.4683    5.3367 H         1 <0>         0.0617
     40 H15         4.0354   -2.0596    6.8635 H         1 <0>         0.0616
     41 H16         3.4086   -3.3756    5.8420 H         1 <0>         0.0634
     42 O5         -0.0110    0.9628    0.0073 O.3       1 <0>        -0.6549
@<TRIPOS>BOND
     1    1    2 1
     2    1   27 1
     3    1   28 1
     4    1   29 1
     5    2   25 1
     6    2    3 1
     7    2   26 1
     8    3    4 1
     9    3   30 1
    10    3   31 1
    11    4   10 1
    12    4    5 2
    13    5    6 1
    14    5   23 1
    15    6    7 1
    16    6    8 1
    17    6   14 1
    18    8    9 2
    19    8   12 1
    20    9   10 1
    21    9   11 1
    22   11   32 1
    23   11   33 1
    24   12   13 3
    25   14   19 ar
    26   14   15 ar
    27   15   16 ar
    28   15   34 1
    29   16   17 ar
    30   16   20 1
    31   17   18 ar
    32   17   35 1
    33   18   19 ar
    34   18   36 1
    35   19   42 1
    36   20   21 2
    37   20   22 1
    38   23   24 2
    39   23   25 1
    40   25   37 1
    41   25   38 1
    42   26   39 1
    43   26   40 1
    44   26   41 1
