@<TRIPOS>MOLECULE
ZINC11416086
   59    63     0     0     0
SMALL
USER_CHARGES
1-[1-[5-[[5-(2-chlorophenyl)-1,3,4-oxadiazol-2-yl]methylsulfanyl]-4-(4-fluorophenyl)-1,2,4-triazol-3-yl]ethyl]piperidine
@<TRIPOS>ATOM
      1 C1          5.8662   13.2294   -2.0160 C.3       1 <0>        -0.1790
      2 C2          7.0027   12.2369   -2.2695 C.3       1 <0>         0.1351
      3 H1          7.2476   12.2285   -3.3316 H         1 <0>         0.1511
      4 C3          6.5699   10.8579   -1.8429 C.2       1 <0>         0.1252
      5 N1          6.4436   10.4324   -0.6176 N.2       1 <0>        -0.2457
      6 N2          6.0565    9.2070   -0.6124 N.2       1 <0>        -0.2697
      7 C4          5.9129    8.7781   -1.8450 C.2       1 <0>         0.1895
      8 N3          6.2412    9.8177   -2.6710 N.pl3     1 <0>        -0.3940
      9 C5          6.2390    9.8190   -4.0743 C.ar      1 <0>         0.0608
     10 C6          7.4289    9.9795   -4.7708 C.ar      1 <0>        -0.0756
     11 C7          7.4257    9.9743   -6.1520 C.ar      1 <0>        -0.1365
     12 C8          6.2347    9.8216   -6.8418 C.ar      1 <0>         0.1395
     13 C9          5.0460    9.6671   -6.1485 C.ar      1 <0>        -0.1316
     14 C10         5.0463    9.6656   -4.7674 C.ar      1 <0>        -0.0601
     15 F1          6.2326    9.8229   -8.1928 F         1 <0>        -0.1179
     16 S1          5.4015    7.1666   -2.3410 S.3       1 <0>         0.0820
     17 C11         5.1692    6.3974   -0.7191 C.3       1 <0>        -0.0185
     18 C12         4.7182    4.9708   -0.8996 C.2       1 <0>         0.1487
     19 N4          5.4913    3.9257   -0.9978 N.2       1 <0>        -0.2423
     20 N5          4.7705    2.8691   -1.1372 N.2       1 <0>        -0.2657
     21 C13         3.5025    3.2079   -1.1423 C.2       1 <0>         0.2324
     22 O1          3.4460    4.5459   -0.9881 O.3       1 <0>        -0.1945
     23 C14         2.3508    2.2922   -1.2843 C.ar      1 <0>        -0.0309
     24 C15         2.5603    0.9208   -1.4377 C.ar      1 <0>        -0.0506
     25 C16         1.4814    0.0716   -1.5693 C.ar      1 <0>        -0.1131
     26 C17         0.1930    0.5765   -1.5547 C.ar      1 <0>        -0.0723
     27 C18        -0.0230    1.9334   -1.3978 C.ar      1 <0>        -0.1109
     28 C19         1.0482    2.7952   -1.2651 C.ar      1 <0>        -0.0068
     29 Cl1         0.7760    4.4992   -1.0754 Cl        1 <0>        -0.0439
     30 C20         8.6546   13.9693   -1.9079 C.3       1 <0>        -0.0064
     31 C21         9.7930   14.4167   -0.9882 C.3       1 <0>        -0.1456
     32 C22        10.9378   13.4033   -1.0711 C.3       1 <0>        -0.1384
     33 C23        10.4117   12.0180   -0.6853 C.3       1 <0>        -0.1432
     34 C24         9.2553   11.6401   -1.6138 C.3       1 <0>        -0.0049
     35 H2          6.1792   14.2268   -2.3246 H         1 <0>         0.0989
     36 H3          4.9883   12.9306   -2.5889 H         1 <0>         0.1071
     37 H4          5.6213   13.2378   -0.9539 H         1 <0>         0.0947
     38 H5          8.3572   10.1038   -4.2331 H         1 <0>         0.1383
     39 H6          8.3519   10.0943   -6.6942 H         1 <0>         0.1569
     40 H7          4.1181    9.5482   -6.6881 H         1 <0>         0.1587
     41 H8          4.1190    9.5455   -4.2270 H         1 <0>         0.1480
     42 H9          4.4137    6.9494   -0.1600 H         1 <0>         0.1374
     43 H10         6.1112    6.4140   -0.1709 H         1 <0>         0.1500
     44 H11         3.5652    0.5254   -1.4538 H         1 <0>         0.1520
     45 H12         1.6427   -0.9897   -1.6884 H         1 <0>         0.1470
     46 H13        -0.6478   -0.0928   -1.6623 H         1 <0>         0.1460
     47 H14        -1.0312    2.3206   -1.3836 H         1 <0>         0.1473
     48 H15         9.0139   13.9262   -2.9361 H         1 <0>         0.1325
     49 H16         7.8320   14.6812   -1.8404 H         1 <0>         0.1345
     50 H17         9.4306   14.4733    0.0383 H         1 <0>         0.0904
     51 H18        10.1511   15.3969   -1.3029 H         1 <0>         0.1156
     52 H19        11.7329   13.6950   -0.3849 H         1 <0>         0.0965
     53 H20        11.3262   13.3749   -2.0891 H         1 <0>         0.0819
     54 H21        10.0591   12.0369    0.3459 H         1 <0>         0.0911
     55 H22        11.2119   11.2845   -0.7836 H         1 <0>         0.1126
     56 H23         8.8691   10.6604   -1.3327 H         1 <0>         0.1206
     57 H24         9.6120   11.6081   -2.6433 H         1 <0>         0.1279
     58 N6          8.1769   12.6408   -1.4688 N.4       1 <0>        -0.3878
     59 H25         7.9038   12.6950   -0.4805 H         1 <0>         0.4359
@<TRIPOS>BOND
     1    1    2 1
     2    1   35 1
     3    1   36 1
     4    1   37 1
     5    2    3 1
     6    2    4 1
     7    2   58 1
     8    4    8 1
     9    4    5 2
    10    5    6 1
    11    6    7 2
    12    7    8 1
    13    7   16 1
    14    8    9 1
    15    9   14 ar
    16    9   10 ar
    17   10   11 ar
    18   10   38 1
    19   11   12 ar
    20   11   39 1
    21   12   13 ar
    22   12   15 1
    23   13   14 ar
    24   13   40 1
    25   14   41 1
    26   16   17 1
    27   17   18 1
    28   17   42 1
    29   17   43 1
    30   18   22 1
    31   18   19 2
    32   19   20 1
    33   20   21 2
    34   21   22 1
    35   21   23 1
    36   23   28 ar
    37   23   24 ar
    38   24   25 ar
    39   24   44 1
    40   25   26 ar
    41   25   45 1
    42   26   27 ar
    43   26   46 1
    44   27   28 ar
    45   27   47 1
    46   28   29 1
    47   30   31 1
    48   30   48 1
    49   30   49 1
    50   30   58 1
    51   31   32 1
    52   31   50 1
    53   31   51 1
    54   32   33 1
    55   32   52 1
    56   32   53 1
    57   33   34 1
    58   33   54 1
    59   33   55 1
    60   34   56 1
    61   34   57 1
    62   34   58 1
    63   58   59 1
