@<TRIPOS>MOLECULE
ZINC13064410
   73    78     0     0     0
SMALL
USER_CHARGES
8-[[[(1S)-1-(1-cyclohexyltetrazol-5-yl)propyl]-[(4-fluorophenyl)methyl]amino]methyl]-3,6-dihydro-2H-[1,4]dioxino[2,3-g]quinolin-7-one
@<TRIPOS>ATOM
      1 C1         -0.4157    0.4408    4.9076 C.3       1 <0>        -0.1674
      2 C2          0.9054   -0.1154    4.3724 C.3       1 <0>        -0.1444
      3 C3          0.9635    0.0788    2.8559 C.3       1 <0>         0.1253
      4 H1          0.8013    1.1301    2.6178 H         1 <0>         0.1518
      5 C4          2.3157   -0.3488    2.3462 C.2       1 <0>         0.1249
      6 N1          2.7231   -1.5782    2.1448 N.2       1 <0>        -0.2845
      7 N2          3.9332   -1.5294    1.7050 N.2       1 <0>        -0.0512
      8 N3          4.3109   -0.3011    1.6281 N.2       1 <0>        -0.0484
      9 N4          3.3414    0.4573    2.0149 N.pl3     1 <0>        -0.2728
     10 C5          3.3544    1.9207    2.0807 C.3       1 <0>         0.1318
     11 C6          3.8058    2.4878    0.7333 C.3       1 <0>        -0.1314
     12 C7          3.8194    4.0162    0.8019 C.3       1 <0>        -0.1164
     13 C8          4.7881    4.4690    1.8962 C.3       1 <0>        -0.1307
     14 C9          4.3367    3.9019    3.2436 C.3       1 <0>        -0.1161
     15 C10         4.3232    2.3735    3.1749 C.3       1 <0>        -0.1316
     16 C11        -0.2351   -0.3754    0.8018 C.3       1 <0>         0.0391
     17 C12        -0.9099    0.9679    0.6952 C.ar      1 <0>        -0.1735
     18 C13        -2.2897    1.0470    0.6625 C.ar      1 <0>        -0.0582
     19 C14        -2.9097    2.2786    0.5697 C.ar      1 <0>        -0.1446
     20 C15        -2.1482    3.4328    0.4988 C.ar      1 <0>         0.1428
     21 C16        -0.7663    3.3519    0.5263 C.ar      1 <0>        -0.1459
     22 C17        -0.1486    2.1196    0.6245 C.ar      1 <0>        -0.0737
     23 F1         -2.7532    4.6370    0.4033 F         1 <0>        -0.1201
     24 C18         0.2035   -2.1680    2.3693 C.3       1 <0>         0.0599
     25 C19        -1.0676   -2.9545    2.1771 C.2       1 <0>        -0.2783
     26 C20        -1.3672   -3.4675    0.9566 C.2       1 <0>         0.0652
     27 C21        -2.6052   -4.2306    0.8036 C.ar      1 <0>        -0.1519
     28 C22        -2.9638   -4.7864   -0.4304 C.ar      1 <0>        -0.0431
     29 C23        -4.1398   -5.4970   -0.5458 C.ar      1 <0>         0.0322
     30 C24        -4.9733   -5.6636    0.5641 C.ar      1 <0>         0.1406
     31 C25        -4.6271   -5.1169    1.7879 C.ar      1 <0>        -0.1717
     32 C26        -3.4466   -4.3978    1.9206 C.ar      1 <0>         0.2111
     33 N5         -3.0866   -3.8451    3.1330 N.am      1 <0>        -0.6166
     34 H2         -3.6666   -3.9603    3.9019 H         1 <0>         0.4265
     35 C27        -1.9435   -3.1497    3.2640 C.2       1 <0>         0.5460
     36 O1         -1.6575   -2.6757    4.3502 O.2       1 <0>        -0.5357
     37 O2         -6.1334   -6.3668    0.4597 O.3       1 <0>        -0.2948
     38 C28        -6.6383   -6.5840   -0.8620 C.3       1 <0>         0.0168
     39 C29        -5.4774   -7.0522   -1.7497 C.3       1 <0>         0.0179
     40 O3         -4.4759   -6.0293   -1.7538 O.3       1 <0>        -0.3001
     41 H3         -0.5206    1.4825    4.6046 H         1 <0>         0.0691
     42 H4         -1.2447   -0.1404    4.5036 H         1 <0>         0.0629
     43 H5         -0.4229    0.3763    5.9956 H         1 <0>         0.0930
     44 H6          0.9733   -1.1780    4.6055 H         1 <0>         0.1074
     45 H7          1.7373    0.4127    4.8385 H         1 <0>         0.1115
     46 H8          2.3523    2.2830    2.3100 H         1 <0>         0.1145
     47 H9          4.8080    2.1255    0.5040 H         1 <0>         0.0940
     48 H10         3.1156    2.1653   -0.0463 H         1 <0>         0.0737
     49 H11         2.8172    4.3785    1.0312 H         1 <0>         0.0683
     50 H12         4.1410    4.4202   -0.1580 H         1 <0>         0.0836
     51 H13         4.7978    5.5579    1.9451 H         1 <0>         0.0775
     52 H14         5.7903    4.1067    1.6669 H         1 <0>         0.0724
     53 H15         3.3346    4.2642    3.4729 H         1 <0>         0.0699
     54 H16         5.0269    4.2245    4.0232 H         1 <0>         0.0833
     55 H17         4.0016    1.9695    4.1348 H         1 <0>         0.0759
     56 H18         5.3253    2.0112    2.9456 H         1 <0>         0.0899
     57 H19        -0.8433   -1.1283    0.3005 H         1 <0>         0.1421
     58 H20         0.7461   -0.3276    0.3295 H         1 <0>         0.1330
     59 H21        -2.8834    0.1462    0.7137 H         1 <0>         0.1432
     60 H22        -3.9878    2.3404    0.5483 H         1 <0>         0.1522
     61 H23        -0.1713    4.2516    0.4715 H         1 <0>         0.1514
     62 H24         0.9293    2.0563    0.6464 H         1 <0>         0.1316
     63 H25         0.9366   -2.4742    1.6231 H         1 <0>         0.1590
     64 H26         0.6000   -2.3564    3.3669 H         1 <0>         0.1512
     65 H27        -0.7037   -3.3186    0.1176 H         1 <0>         0.1569
     66 H28        -2.3215   -4.6587   -1.2893 H         1 <0>         0.1556
     67 H29        -5.2770   -5.2485    2.6404 H         1 <0>         0.1546
     68 H30        -7.0502   -5.6547   -1.2554 H         1 <0>         0.0884
     69 H31        -7.4142   -7.3492   -0.8378 H         1 <0>         0.1351
     70 H32        -5.8358   -7.2199   -2.7654 H         1 <0>         0.1337
     71 H33        -5.0580   -7.9757   -1.3508 H         1 <0>         0.0859
     72 N6         -0.1049   -0.7291    2.2310 N.4       1 <0>        -0.3860
     73 H34        -0.9935   -0.5313    2.7058 H         1 <0>         0.4359
@<TRIPOS>BOND
     1    1    2 1
     2    1   41 1
     3    1   42 1
     4    1   43 1
     5    2    3 1
     6    2   44 1
     7    2   45 1
     8    3    4 1
     9    3    5 1
    10    3   72 1
    11    5    9 1
    12    5    6 2
    13    6    7 1
    14    7    8 2
    15    8    9 1
    16    9   10 1
    17   10   15 1
    18   10   11 1
    19   10   46 1
    20   11   12 1
    21   11   47 1
    22   11   48 1
    23   12   13 1
    24   12   49 1
    25   12   50 1
    26   13   14 1
    27   13   51 1
    28   13   52 1
    29   14   15 1
    30   14   53 1
    31   14   54 1
    32   15   55 1
    33   15   56 1
    34   16   17 1
    35   16   57 1
    36   16   58 1
    37   16   72 1
    38   17   22 ar
    39   17   18 ar
    40   18   19 ar
    41   18   59 1
    42   19   20 ar
    43   19   60 1
    44   20   21 ar
    45   20   23 1
    46   21   22 ar
    47   21   61 1
    48   22   62 1
    49   24   25 1
    50   24   63 1
    51   24   64 1
    52   24   72 1
    53   25   35 1
    54   25   26 2
    55   26   27 1
    56   26   65 1
    57   27   32 ar
    58   27   28 ar
    59   28   29 ar
    60   28   66 1
    61   29   40 1
    62   29   30 ar
    63   30   31 ar
    64   30   37 1
    65   31   32 ar
    66   31   67 1
    67   32   33 1
    68   33   34 1
    69   33   35 am
    70   35   36 2
    71   37   38 1
    72   38   39 1
    73   38   68 1
    74   38   69 1
    75   39   40 1
    76   39   70 1
    77   39   71 1
    78   72   73 1
