@<TRIPOS>MOLECULE
ZINC63416337
   42    44     0     0     0
SMALL
USER_CHARGES

@<TRIPOS>ATOM
      1 C1          0.5012   -0.2626   -0.4799 C.3       1 <0>        -0.1537
      2 C2          0.2341   -1.6527    0.1007 C.3       1 <0>         0.0777
      3 O1         -1.1751   -1.8543    0.2252 O.3       1 <0>        -0.3691
      4 C3         -1.5817   -3.0368    0.7244 C.2       1 <0>         0.6594
      5 O2         -0.7624   -3.8747    1.0455 O.2       1 <0>        -0.5262
      6 N1         -2.8974   -3.2911    0.8679 N.am      1 <0>        -0.4905
      7 N2         -3.8421   -2.3249    0.4977 N.am      1 <0>        -0.4932
      8 C4         -5.1578   -2.5792    0.6412 C.2       1 <0>         0.5233
      9 O3         -5.5274   -3.6756    1.0048 O.2       1 <0>        -0.4868
     10 C5         -6.1698   -1.5012    0.3499 C.3       1 <0>         0.0904
     11 H1         -5.8040   -0.8477   -0.4421 H         1 <0>         0.1987
     12 C6         -6.4496   -0.6977    1.6006 C.2       1 <0>         0.1609
     13 C7         -7.7998   -0.8635    1.8581 C.ar      1 <0>        -0.1589
     14 C8         -8.6471   -0.3667    2.8783 C.ar      1 <0>         0.0223
     15 C9         -9.9608   -0.7007    2.8821 C.ar      1 <0>        -0.1323
     16 C10       -10.5108   -1.5307    1.8974 C.ar      1 <0>         0.0671
     17 C11        -9.7624   -2.0416    0.8923 C.ar      1 <0>        -0.1863
     18 C12        -8.3756   -1.7382    0.8189 C.ar      1 <0>         0.3419
     19 N3         -7.4488   -2.1018   -0.0416 N.pl3     1 <0>        -0.5720
     20 Br1       -11.0786   -0.0295    4.2517 Br        1 <0>         0.0127
     21 C13        -5.4913    0.0909    2.3779 C.ar      1 <0>        -0.1263
     22 C14        -4.7205    1.0812    1.7520 C.ar      1 <0>        -0.0714
     23 C15        -3.8218    1.8183    2.4917 C.ar      1 <0>        -0.1131
     24 C16        -3.6782    1.5836    3.8490 C.ar      1 <0>        -0.0616
     25 C17        -4.4347    0.6075    4.4757 C.ar      1 <0>        -0.1137
     26 C18        -5.3430   -0.1356    3.7538 C.ar      1 <0>        -0.0620
     27 H2          1.5761   -0.1088   -0.5749 H         1 <0>         0.0903
     28 H3          0.0346   -0.1832   -1.4618 H         1 <0>         0.0685
     29 H4          0.0830    0.4946    0.1834 H         1 <0>         0.0678
     30 H5          0.6522   -2.4099   -0.5626 H         1 <0>         0.0769
     31 H6          0.7007   -1.7322    1.0826 H         1 <0>         0.0766
     32 H7         -3.1903   -4.1430    1.2275 H         1 <0>         0.4580
     33 H8         -3.5491   -1.4730    0.1381 H         1 <0>         0.4396
     34 H9         -8.2483    0.2751    3.6500 H         1 <0>         0.1688
     35 H10       -11.5631   -1.7697    1.9411 H         1 <0>         0.1734
     36 H11       -10.2175   -2.6782    0.1480 H         1 <0>         0.1749
     37 H12        -4.8306    1.2651    0.6935 H         1 <0>         0.1380
     38 H13        -3.2273    2.5814    2.0115 H         1 <0>         0.1450
     39 H14        -2.9715    2.1652    4.4223 H         1 <0>         0.1422
     40 H15        -4.3153    0.4310    5.5345 H         1 <0>         0.1446
     41 H16        -5.9353   -0.8933    4.2451 H         1 <0>         0.1366
     42 H17        -7.5885   -2.6754   -0.8113 H         1 <0>         0.4615
@<TRIPOS>BOND
     1    1    2 1
     2    1   27 1
     3    1   28 1
     4    1   29 1
     5    2    3 1
     6    2   30 1
     7    2   31 1
     8    3    4 1
     9    4    5 2
    10    4    6 am
    11    6    7 1
    12    6   32 1
    13    7    8 am
    14    7   33 1
    15    8    9 2
    16    8   10 1
    17   10   11 1
    18   10   19 1
    19   10   12 1
    20   12   13 2
    21   12   21 1
    22   13   18 ar
    23   13   14 ar
    24   14   15 ar
    25   14   34 1
    26   15   16 ar
    27   15   20 1
    28   16   17 ar
    29   16   35 1
    30   17   18 ar
    31   17   36 1
    32   18   19 2
    33   19   42 1
    34   21   26 ar
    35   21   22 ar
    36   22   23 ar
    37   22   37 1
    38   23   24 ar
    39   23   38 1
    40   24   25 ar
    41   24   39 1
    42   25   26 ar
    43   25   40 1
    44   26   41 1
