@<TRIPOS>MOLECULE
ZINC03185041
   56    60     0     0     0
SMALL
USER_CHARGES
N-[1-(2,5-dioxabicyclo[4.4.0]deca-7,9,11-trien-8-ylmethyleneaminocarbamoyl)-2-(1H-indol-3-yl)ethyl]thiophene-2-carboxamide
@<TRIPOS>ATOM
      1 C1         -9.4809   -5.9996    0.6091 C.ar      1 <0>        -0.1435
      2 C2        -10.8150   -6.3710    0.7083 C.ar      1 <0>        -0.0990
      3 C3        -11.7808   -5.4426    1.0286 C.ar      1 <0>        -0.1280
      4 C4        -11.4185   -4.1186    1.2555 C.ar      1 <0>         0.0962
      5 C5        -10.0655   -3.7475    1.1538 C.ar      1 <0>        -0.1008
      6 C6         -9.1030   -4.7049    0.8275 C.ar      1 <0>        -0.0749
      7 C7        -10.0164   -2.3127    1.4451 C.2       1 <0>        -0.1701
      8 C8        -11.2749   -1.9204    1.6984 C.2       1 <0>         0.0696
      9 N1        -12.1271   -2.9849    1.5844 N.pl3     1 <0>        -0.5933
     10 H1        -13.0869   -2.9472    1.7194 H         1 <0>         0.4168
     11 C9         -8.7856   -1.4433    1.4634 C.3       1 <0>        -0.0565
     12 C10        -8.4821   -0.9590    0.0442 C.3       1 <0>         0.1537
     13 H2         -8.3981   -1.8173   -0.6225 H         1 <0>         0.1160
     14 C11        -7.1848   -0.1921    0.0417 C.2       1 <0>         0.5156
     15 O1         -7.1972    1.0209    0.0496 O.2       1 <0>        -0.4650
     16 N2         -6.0108   -0.8539    0.0307 N.am      1 <0>        -0.5838
     17 N3         -4.8048   -0.1410    0.0284 N.2       1 <0>        -0.2224
     18 C12        -3.6742   -0.7783    0.0178 C.2       1 <0>         0.1118
     19 C13        -2.4051   -0.0281    0.0154 C.ar      1 <0>        -0.0528
     20 C14        -2.4167    1.3690    0.0250 C.ar      1 <0>        -0.0707
     21 C15        -1.2284    2.0671    0.0190 C.ar      1 <0>        -0.1182
     22 C16        -0.0168    1.3876    0.0097 C.ar      1 <0>         0.0680
     23 C17         0.0021   -0.0041    0.0020 C.ar      1 <0>         0.0446
     24 C18        -1.1872   -0.7116    0.0041 C.ar      1 <0>        -0.0833
     25 O2          1.1812   -0.6846   -0.0062 O.3       1 <0>        -0.3063
     26 C19         2.3475    0.0537   -0.3861 C.3       1 <0>         0.0205
     27 C20         2.3344    1.3916    0.3657 C.3       1 <0>         0.0190
     28 O3          1.1438    2.0985    0.0024 O.3       1 <0>        -0.3052
     29 N4         -9.5656   -0.0871   -0.4164 N.am      1 <0>        -0.7104
     30 C21        -9.8542    1.0431    0.2586 C.2       1 <0>         0.6113
     31 O4         -9.2148    1.3395    1.2507 O.2       1 <0>        -0.4918
     32 C22       -10.9384    1.9155   -0.2023 C.2       1 <0>        -0.2313
     33 C23       -11.3911    3.1077    0.3406 C.2       1 <0>        -0.0725
     34 C24       -12.4350    3.7291   -0.2985 C.2       1 <0>        -0.1755
     35 C25       -12.9656    3.1583   -1.4116 C.2       1 <0>        -0.1830
     36 S1        -12.0139    1.7234   -1.6127 S.3       1 <0>         0.1308
     37 H3         -8.7361   -6.7398    0.3567 H         1 <0>         0.1223
     38 H4        -11.0983   -7.3981    0.5321 H         1 <0>         0.1249
     39 H5        -12.8160   -5.7414    1.1030 H         1 <0>         0.1193
     40 H6         -8.0634   -4.4232    0.7483 H         1 <0>         0.1191
     41 H7        -11.5712   -0.9134    1.9524 H         1 <0>         0.1649
     42 H8         -7.9397   -2.0188    1.8395 H         1 <0>         0.0838
     43 H9         -8.9573   -0.5840    2.1116 H         1 <0>         0.1027
     44 H10        -6.0009   -1.8239    0.0244 H         1 <0>         0.3851
     45 H11        -3.6631   -1.8583    0.0108 H         1 <0>         0.1228
     46 H12        -3.3562    1.9015    0.0347 H         1 <0>         0.1456
     47 H13        -1.2391    3.1470    0.0271 H         1 <0>         0.1399
     48 H14        -1.1735   -1.7915   -0.0035 H         1 <0>         0.1413
     49 H15         3.2420   -0.5092   -0.1194 H         1 <0>         0.1243
     50 H16         2.3340    0.2350   -1.4608 H         1 <0>         0.0791
     51 H17         2.3401    1.2094    1.4404 H         1 <0>         0.0800
     52 H18         3.2098    1.9783    0.0872 H         1 <0>         0.1243
     53 H19       -10.0753   -0.3234   -1.2072 H         1 <0>         0.4052
     54 H20       -10.9420    3.5295    1.2276 H         1 <0>         0.1482
     55 H21       -12.8296    4.6610    0.0788 H         1 <0>         0.1411
     56 H22       -13.7802    3.5145   -2.0249 H         1 <0>         0.1904
@<TRIPOS>BOND
     1    1    6 ar
     2    1    2 ar
     3    1   37 1
     4    2    3 ar
     5    2   38 1
     6    3    4 ar
     7    3   39 1
     8    4    9 1
     9    4    5 ar
    10    5    6 ar
    11    5    7 1
    12    6   40 1
    13    7    8 2
    14    7   11 1
    15    8    9 1
    16    8   41 1
    17    9   10 1
    18   11   12 1
    19   11   42 1
    20   11   43 1
    21   12   13 1
    22   12   14 1
    23   12   29 1
    24   14   15 2
    25   14   16 am
    26   16   17 1
    27   16   44 1
    28   17   18 2
    29   18   19 1
    30   18   45 1
    31   19   24 ar
    32   19   20 ar
    33   20   21 ar
    34   20   46 1
    35   21   22 ar
    36   21   47 1
    37   22   28 1
    38   22   23 ar
    39   23   24 ar
    40   23   25 1
    41   24   48 1
    42   25   26 1
    43   26   27 1
    44   26   49 1
    45   26   50 1
    46   27   28 1
    47   27   51 1
    48   27   52 1
    49   29   30 am
    50   29   53 1
    51   30   31 2
    52   30   32 1
    53   32   36 1
    54   32   33 2
    55   33   34 1
    56   33   54 1
    57   34   35 2
    58   34   55 1
    59   35   36 1
    60   35   56 1
