@<TRIPOS>MOLECULE
ZINC20464637
   68    70     0     0     0
SMALL
USER_CHARGES

@<TRIPOS>ATOM
      1 C1         -0.1144    1.7603   -0.3755 C.3       1 <0>        -0.1840
      2 C2          0.1150    0.2477   -0.3997 C.3       1 <0>         0.1312
      3 C3         -1.2340   -0.4760   -0.4702 C.3       1 <0>        -0.1497
      4 C4         -0.9700   -1.9783   -0.5706 C.3       1 <0>        -0.1121
      5 C5         -0.1824   -2.4783    0.6185 C.3       1 <0>        -0.0649
      6 C6          1.1153   -1.6860    0.8603 C.3       1 <0>        -0.0591
      7 H1          1.9024   -1.9574    0.1568 H         1 <0>         0.1121
      8 C7          0.8331   -0.1821    0.8771 C.3       1 <0>        -0.1050
      9 C8          1.4616   -2.0896    2.3241 C.3       1 <0>        -0.0662
     10 C9          0.0899   -2.1234    3.0330 C.3       1 <0>        -0.1361
     11 C10        -0.9642   -2.3672    1.9340 C.3       1 <0>         0.0277
     12 H2         -1.6598   -1.5292    1.8880 H         1 <0>         0.1426
     13 N1         -1.6914   -3.6160    2.1980 N.4       1 <0>        -0.5003
     14 C11        -2.5768   -3.4318    3.3556 C.3       1 <0>        -0.0093
     15 C12        -1.8950   -3.7172    4.7042 C.3       1 <0>        -0.1484
     16 C13        -3.2075   -4.3925    5.1355 C.3       1 <0>        -0.1349
     17 C14        -3.4761   -4.6457    3.6427 C.3       1 <0>        -0.1501
     18 C15         2.3734   -1.0433    2.9683 C.3       1 <0>        -0.1480
     19 C16         2.1185   -3.4709    2.3593 C.3       1 <0>        -0.1518
     20 C17         0.1922   -3.9435    0.3868 C.3       1 <0>        -0.1435
     21 C18         1.1654   -4.0411   -0.7898 C.3       1 <0>        -0.1397
     22 C19         1.5886   -5.4757   -0.9740 C.2       1 <0>         0.5114
     23 O1          1.1546   -6.3354   -0.2368 O.2       1 <0>        -0.5495
     24 N2          2.4493   -5.8034   -1.9580 N.am      1 <0>        -0.7208
     25 C20         2.8607   -7.1980   -2.1370 C.3       1 <0>         0.1207
     26 C21         3.8339   -7.2956   -3.3136 C.3       1 <0>         0.0444
     27 O2          5.0333   -6.5849   -3.0000 O.3       1 <0>        -0.3919
     28 C22         6.0145   -6.6138   -4.0385 C.3       1 <0>         0.0295
     29 O3          0.9089   -0.0987   -1.5362 O.3       1 <0>        -0.5539
     30 H3          0.8456    2.2723   -0.3100 H         1 <0>         0.0688
     31 H4         -0.6271    2.0646   -1.2879 H         1 <0>         0.0626
     32 H5         -0.7251    2.0213    0.4888 H         1 <0>         0.0651
     33 H6         -1.8118   -0.2641    0.4294 H         1 <0>         0.0693
     34 H7         -1.7852   -0.1406   -1.3487 H         1 <0>         0.0776
     35 H8         -1.9227   -2.5059   -0.6150 H         1 <0>         0.0629
     36 H9         -0.4078   -2.1817   -1.4820 H         1 <0>         0.0935
     37 H10         1.7758    0.3591    0.9581 H         1 <0>         0.0829
     38 H11         0.2082    0.0562    1.7378 H         1 <0>         0.0763
     39 H12         0.0653   -2.9341    3.7611 H         1 <0>         0.0906
     40 H13        -0.0990   -1.1705    3.5274 H         1 <0>         0.1029
     41 H14        -2.2421   -3.8619    1.3891 H         1 <0>         0.4253
     42 H15        -3.1164   -2.4851    3.3294 H         1 <0>         0.1590
     43 H16        -1.0532   -4.4058    4.6308 H         1 <0>         0.1034
     44 H17        -1.6591   -2.8179    5.2731 H         1 <0>         0.1022
     45 H18        -3.0597   -5.3048    5.7135 H         1 <0>         0.0957
     46 H19        -3.9193   -3.7083    5.5973 H         1 <0>         0.1011
     47 H20        -4.5166   -4.4961    3.3547 H         1 <0>         0.1018
     48 H21        -3.0666   -5.5882    3.2791 H         1 <0>         0.1044
     49 H22         1.8680   -0.0775    2.9778 H         1 <0>         0.0650
     50 H23         2.6043   -1.3426    3.9906 H         1 <0>         0.0621
     51 H24         3.2972   -0.9643    2.3953 H         1 <0>         0.0674
     52 H25         2.5594   -3.6885    1.3865 H         1 <0>         0.0690
     53 H26         2.8970   -3.4837    3.1221 H         1 <0>         0.0686
     54 H27         1.3671   -4.2247    2.5944 H         1 <0>         0.0552
     55 H28         0.6651   -4.3439    1.2835 H         1 <0>         0.1026
     56 H29        -0.7070   -4.5175    0.1631 H         1 <0>         0.0675
     57 H30         0.6753   -3.6876   -1.6970 H         1 <0>         0.1024
     58 H31         2.0427   -3.4266   -0.5877 H         1 <0>         0.1076
     59 H32         2.7965   -5.1158   -2.5476 H         1 <0>         0.4065
     60 H33         3.3508   -7.5516   -1.2299 H         1 <0>         0.0795
     61 H34         1.9834   -7.8125   -2.3392 H         1 <0>         0.0854
     62 H35         4.0709   -8.3425   -3.5032 H         1 <0>         0.0711
     63 H36         3.3753   -6.8603   -4.2015 H         1 <0>         0.0585
     64 H37         6.8940   -6.0524   -3.7231 H         1 <0>         0.0903
     65 H38         6.2967   -7.6465   -4.2431 H         1 <0>         0.0459
     66 H39         5.6011   -6.1643   -4.9414 H         1 <0>         0.0442
     67 H40         0.5091    0.1416   -2.3833 H         1 <0>         0.3796
     68 H41        -1.0320   -4.3544    2.3930 H         1 <0>         0.4257
@<TRIPOS>BOND
     1    1    2 1
     2    1   30 1
     3    1   31 1
     4    1   32 1
     5    2    8 1
     6    2    3 1
     7    2   29 1
     8    3    4 1
     9    3   33 1
    10    3   34 1
    11    4    5 1
    12    4   35 1
    13    4   36 1
    14    5   11 1
    15    5    6 1
    16    5   20 1
    17    6    7 1
    18    6    8 1
    19    6    9 1
    20    8   37 1
    21    8   38 1
    22    9   10 1
    23    9   18 1
    24    9   19 1
    25   10   11 1
    26   10   39 1
    27   10   40 1
    28   11   12 1
    29   11   13 1
    30   13   14 1
    31   13   41 1
    32   13   68 1
    33   14   17 1
    34   14   15 1
    35   14   42 1
    36   15   16 1
    37   15   43 1
    38   15   44 1
    39   16   17 1
    40   16   45 1
    41   16   46 1
    42   17   47 1
    43   17   48 1
    44   18   49 1
    45   18   50 1
    46   18   51 1
    47   19   52 1
    48   19   53 1
    49   19   54 1
    50   20   21 1
    51   20   55 1
    52   20   56 1
    53   21   22 1
    54   21   57 1
    55   21   58 1
    56   22   23 2
    57   22   24 am
    58   24   25 1
    59   24   59 1
    60   25   26 1
    61   25   60 1
    62   25   61 1
    63   26   27 1
    64   26   62 1
    65   26   63 1
    66   27   28 1
    67   28   64 1
    68   28   65 1
    69   28   66 1
    70   29   67 1
