@<TRIPOS>MOLECULE
ZINC38658603
   59    62     0     0     0
SMALL
USER_CHARGES

@<TRIPOS>ATOM
      1 C1          5.0600   -1.2685    2.2547 C.3       1 <0>        -0.1103
      2 C2          3.9582   -2.1659    1.7528 C.ar      1 <0>        -0.0933
      3 C3          4.1720   -2.9739    0.6526 C.ar      1 <0>        -0.0734
      4 C4          3.1608   -3.7978    0.1915 C.ar      1 <0>        -0.0634
      5 C5          1.9336   -3.8145    0.8309 C.ar      1 <0>        -0.0747
      6 C6          1.7161   -3.0081    1.9310 C.ar      1 <0>        -0.1925
      7 C7          2.7308   -2.1854    2.3984 C.ar      1 <0>         0.1295
      8 O1          2.5206   -1.3956    3.4846 O.3       1 <0>        -0.2880
      9 C8          1.2325   -1.4672    4.0992 C.3       1 <0>         0.0712
     10 C9          1.1857   -0.5296    5.2781 C.2       1 <0>         0.4619
     11 O2          2.1558    0.1320    5.5627 O.2       1 <0>        -0.4554
     12 O3          0.0659   -0.4295    6.0121 O.3       1 <0>        -0.2879
     13 C10         0.1002    0.3499    7.1252 C.ar      1 <0>         0.1133
     14 C11         0.0378    1.7315    7.0085 C.ar      1 <0>        -0.1217
     15 C12         0.0728    2.5218    8.1402 C.ar      1 <0>        -0.0607
     16 C13         0.1704    1.9421    9.3929 C.ar      1 <0>        -0.1093
     17 C14         0.2330    0.5629    9.5152 C.ar      1 <0>         0.1316
     18 C15         0.1916   -0.2338    8.3781 C.ar      1 <0>        -0.1210
     19 O4          0.3288   -0.0236   10.7339 O.3       1 <0>        -0.2418
     20 C16        -0.0163    0.6617   11.8366 C.2       1 <0>         0.4413
     21 C17        -0.0924    2.0136   11.8457 C.2       1 <0>        -0.2757
     22 C18         0.2082    2.8214   10.6146 C.3       1 <0>         0.0873
     23 H1         -0.5337    3.6135   10.5125 H         1 <0>         0.1016
     24 C19         1.5772    3.4379   10.7439 C.ar      1 <0>        -0.0758
     25 C20         2.6895    2.6268   10.8723 C.ar      1 <0>        -0.0960
     26 C21         3.9475    3.1874   10.9912 C.ar      1 <0>        -0.1690
     27 C22         4.0959    4.5651   10.9813 C.ar      1 <0>         0.1013
     28 C23         2.9764    5.3814   10.8516 C.ar      1 <0>         0.1022
     29 C24         1.7188    4.8129   10.7280 C.ar      1 <0>        -0.1631
     30 O5          3.1168    6.7340   10.8414 O.3       1 <0>        -0.3055
     31 C25         1.9241    7.5091   10.7049 C.3       1 <0>         0.0254
     32 O6          5.3327    5.1182   11.0986 O.3       1 <0>        -0.3063
     33 C26         6.4358    4.2191   11.2287 C.3       1 <0>         0.0257
     34 C27        -0.4673    2.6871   13.0525 C.1       1 <0>         0.2724
     35 N1         -0.7647    3.2214   14.0099 N.1       1 <0>        -0.4421
     36 N2         -0.3007   -0.0290   12.9882 N.pl3     1 <0>        -0.8290
     37 Cl1         3.4316   -4.8118   -1.1913 Cl        1 <0>        -0.0656
     38 H2          5.6602   -1.8058    2.9889 H         1 <0>         0.0744
     39 H3          5.6920   -0.9671    1.4193 H         1 <0>         0.0703
     40 H4          4.6247   -0.3835    2.7188 H         1 <0>         0.0767
     41 H5          5.1289   -2.9620    0.1521 H         1 <0>         0.1430
     42 H6          1.1454   -4.4581    0.4693 H         1 <0>         0.1391
     43 H7          0.7581   -3.0211    2.4295 H         1 <0>         0.1402
     44 H8          0.4686   -1.1806    3.3765 H         1 <0>         0.1137
     45 H9          1.0478   -2.4866    4.4381 H         1 <0>         0.1140
     46 H10        -0.0377    2.1883    6.0328 H         1 <0>         0.1395
     47 H11         0.0240    3.5967    8.0473 H         1 <0>         0.1445
     48 H12         0.2357   -1.3089    8.4707 H         1 <0>         0.1487
     49 H13         2.5752    1.5529   10.8802 H         1 <0>         0.1203
     50 H14         4.8147    2.5516   11.0921 H         1 <0>         0.1355
     51 H15         0.8487    5.4442   10.6234 H         1 <0>         0.1358
     52 H16         2.1770    8.5693   10.7115 H         1 <0>         0.1012
     53 H17         1.4336    7.2585    9.7643 H         1 <0>         0.0554
     54 H18         1.2519    7.2907   11.5347 H         1 <0>         0.0546
     55 H19         7.3610    4.7890   11.3136 H         1 <0>         0.1011
     56 H20         6.3027    3.6074   12.1210 H         1 <0>         0.0546
     57 H21         6.4850    3.5750   10.3507 H         1 <0>         0.0556
     58 H22        -0.2509   -0.9976   12.9976 H         1 <0>         0.4121
     59 H23        -0.5514    0.4516   13.7926 H         1 <0>         0.4265
@<TRIPOS>BOND
     1    1    2 1
     2    1   38 1
     3    1   39 1
     4    1   40 1
     5    2    7 ar
     6    2    3 ar
     7    3    4 ar
     8    3   41 1
     9    4    5 ar
    10    4   37 1
    11    5    6 ar
    12    5   42 1
    13    6    7 ar
    14    6   43 1
    15    7    8 1
    16    8    9 1
    17    9   10 1
    18    9   44 1
    19    9   45 1
    20   10   11 2
    21   10   12 1
    22   12   13 1
    23   13   18 ar
    24   13   14 ar
    25   14   15 ar
    26   14   46 1
    27   15   16 ar
    28   15   47 1
    29   16   22 1
    30   16   17 ar
    31   17   18 ar
    32   17   19 1
    33   18   48 1
    34   19   20 1
    35   20   21 2
    36   20   36 1
    37   21   22 1
    38   21   34 1
    39   22   23 1
    40   22   24 1
    41   24   29 ar
    42   24   25 ar
    43   25   26 ar
    44   25   49 1
    45   26   27 ar
    46   26   50 1
    47   27   28 ar
    48   27   32 1
    49   28   29 ar
    50   28   30 1
    51   29   51 1
    52   30   31 1
    53   31   52 1
    54   31   53 1
    55   31   54 1
    56   32   33 1
    57   33   55 1
    58   33   56 1
    59   33   57 1
    60   34   35 3
    61   36   58 1
    62   36   59 1
