@<TRIPOS>MOLECULE
ZINC67511354
   42    44     0     0     0
SMALL
USER_CHARGES

@<TRIPOS>ATOM
      1 C1         -0.0257    1.5123    0.0181 C.3       1 <0>        -0.1531
      2 C2          0.0061   -0.0173    0.0099 C.3       1 <0>         0.0567
      3 O1          0.6733   -0.4736   -1.1685 O.3       1 <0>        -0.3176
      4 C3          0.7883   -1.8195   -1.3312 C.ar      1 <0>         0.0765
      5 C4          0.2661   -2.6837   -0.3818 C.ar      1 <0>        -0.1368
      6 C5          0.3835   -4.0467   -0.5510 C.ar      1 <0>        -0.1510
      7 C6          1.0156   -4.5757   -1.6692 C.ar      1 <0>         0.0976
      8 C7          1.5436   -3.7077   -2.6203 C.ar      1 <0>        -0.1164
      9 C8          1.4265   -2.3373   -2.4559 C.ar      1 <0>         0.1565
     10 N1          1.9552   -1.4703   -3.4202 N.am      1 <0>        -0.6536
     11 C9          2.1154   -1.8921   -4.6902 C.2       1 <0>         0.5616
     12 O2          1.7091   -2.9891   -5.0224 O.2       1 <0>        -0.5072
     13 C10         2.7840   -1.0228   -5.6777 C.ar      1 <0>        -0.1355
     14 C11         3.2569    0.2358   -5.2964 C.ar      1 <0>        -0.0630
     15 C12         3.8807    1.0442   -6.2203 C.ar      1 <0>        -0.1390
     16 C13         4.0403    0.6106   -7.5310 C.ar      1 <0>         0.1497
     17 C14         3.5710   -0.6410   -7.9152 C.ar      1 <0>        -0.0744
     18 C15         2.9511   -1.4584   -6.9948 C.ar      1 <0>        -0.0319
     19 Cl1         3.7727   -1.1771   -9.5539 Cl        1 <0>        -0.0426
     20 O3          4.6554    1.4107   -8.4386 O.3       1 <0>        -0.4841
     21 O4          0.9995   -5.9379   -1.6460 O.3       1 <0>        -0.2950
     22 C16         0.7509   -6.3852   -0.3025 C.3       1 <0>         0.0763
     23 H1          0.1665   -7.3053   -0.3038 H         1 <0>         0.1172
     24 C17        -0.0655   -5.2182    0.3014 C.3       1 <0>        -0.1052
     25 C18         2.0654   -6.5816    0.4554 C.3       1 <0>        -0.1722
     26 H2          0.9941    1.8970    0.0059 H         1 <0>         0.0666
     27 H3         -0.5593    1.8693   -0.8628 H         1 <0>         0.0669
     28 H4         -0.5346    1.8604    0.9169 H         1 <0>         0.0798
     29 H5          0.5397   -0.3743    0.8908 H         1 <0>         0.0626
     30 H6         -1.0137   -0.4020    0.0221 H         1 <0>         0.0627
     31 H7         -0.2327   -2.2891    0.4911 H         1 <0>         0.1355
     32 H8          2.0434   -4.1041   -3.4917 H         1 <0>         0.1594
     33 H9          2.2060   -0.5662   -3.1742 H         1 <0>         0.4169
     34 H10         3.1328    0.5742   -4.2784 H         1 <0>         0.1386
     35 H11         4.2462    2.0169   -5.9260 H         1 <0>         0.1487
     36 H12         2.5908   -2.4320   -7.2923 H         1 <0>         0.1542
     37 H13         5.6129    1.2853   -8.4885 H         1 <0>         0.4005
     38 H14         0.1955   -5.0610    1.3480 H         1 <0>         0.0933
     39 H15        -1.1356   -5.3931    0.1903 H         1 <0>         0.0932
     40 H16         2.6192   -5.6429    0.4715 H         1 <0>         0.0620
     41 H17         1.8523   -6.8953    1.4772 H         1 <0>         0.0756
     42 H18         2.6613   -7.3464   -0.0427 H         1 <0>         0.0700
@<TRIPOS>BOND
     1    1    2 1
     2    1   26 1
     3    1   27 1
     4    1   28 1
     5    2    3 1
     6    2   29 1
     7    2   30 1
     8    3    4 1
     9    4    9 ar
    10    4    5 ar
    11    5    6 ar
    12    5   31 1
    13    6   24 1
    14    6    7 ar
    15    7    8 ar
    16    7   21 1
    17    8    9 ar
    18    8   32 1
    19    9   10 1
    20   10   11 am
    21   10   33 1
    22   11   12 2
    23   11   13 1
    24   13   18 ar
    25   13   14 ar
    26   14   15 ar
    27   14   34 1
    28   15   16 ar
    29   15   35 1
    30   16   17 ar
    31   16   20 1
    32   17   18 ar
    33   17   19 1
    34   18   36 1
    35   20   37 1
    36   21   22 1
    37   22   23 1
    38   22   24 1
    39   22   25 1
    40   24   38 1
    41   24   39 1
    42   25   40 1
    43   25   41 1
    44   25   42 1
