@<TRIPOS>MOLECULE
ZINC16677036
   53    54     0     0     0
SMALL
USER_CHARGES
N-(3-dimethylaminopropyl)-2-methoxy-5-[(4S)-4-methyl-1,1,3-trioxo-1,2-thiazolidin-2-yl]benzenesulfonamide
@<TRIPOS>ATOM
      1 C1          2.2314    5.6436    7.5341 C.3       1 <0>        -0.1591
      2 C2          2.9671    4.3092    7.6726 C.3       1 <0>        -0.1097
      3 H1          2.7742    3.8848    8.6579 H         1 <0>         0.1542
      4 C3          4.4917    4.5323    7.4898 C.3       1 <0>        -0.5709
      5 S1          4.6337    4.1119    5.7044 S.o2      1 <0>         2.5371
      6 O1          5.7238    3.2295    5.4761 O.2       1 <0>        -0.9221
      7 O2          4.4304    5.2618    4.8947 O.2       1 <0>        -0.9131
      8 N1          3.2529    3.1818    5.5251 N.am      1 <0>        -0.8726
      9 C4          2.4888    3.3636    6.6126 C.2       1 <0>         0.4901
     10 O3          1.4366    2.7733    6.7371 O.2       1 <0>        -0.4548
     11 C5          2.9469    2.3631    4.4300 C.ar      1 <0>         0.1126
     12 C6          3.9669    1.8521    3.6383 C.ar      1 <0>        -0.0568
     13 C7          3.6646    1.0457    2.5591 C.ar      1 <0>        -0.1924
     14 C8          2.3422    0.7459    2.2656 C.ar      1 <0>         0.2098
     15 C9          1.3229    1.2560    3.0560 C.ar      1 <0>        -0.6898
     16 C10         1.6236    2.0673    4.1324 C.ar      1 <0>         0.0157
     17 S2         -0.3563    0.8747    2.6823 S.o2      1 <0>         2.7037
     18 O4         -1.1510    1.5568    3.6427 O.2       1 <0>        -0.9440
     19 O5         -0.4222   -0.5331    2.5004 O.2       1 <0>        -0.9347
     20 N2         -0.6984    1.5583    1.2133 N.pl3     1 <0>        -1.1175
     21 C11        -0.0127    1.0858    0.0080 C.3       1 <0>         0.1246
     22 C12        -0.7527    1.5927   -1.2315 C.3       1 <0>        -0.1634
     23 C13        -0.0366    1.0992   -2.4903 C.3       1 <0>        -0.0056
     24 C14        -0.6637    3.0490   -3.7817 C.3       1 <0>        -0.0481
     25 C15        -0.2350    0.9438   -4.8984 C.3       1 <0>        -0.0429
     26 O6          2.0452   -0.0486    1.2029 O.3       1 <0>        -0.3151
     27 C16         3.1442   -0.5390    0.4323 C.3       1 <0>         0.0174
     28 H2          2.4197    6.0614    6.5452 H         1 <0>         0.0731
     29 H3          1.1610    5.4834    7.6631 H         1 <0>         0.0870
     30 H4          2.5894    6.3365    8.2955 H         1 <0>         0.0942
     31 H5          5.0723    3.8479    8.1083 H         1 <0>         0.1640
     32 H6          4.7697    5.5691    7.6790 H         1 <0>         0.1690
     33 H7          4.9964    2.0856    3.8664 H         1 <0>         0.1606
     34 H8          4.4578    0.6479    1.9434 H         1 <0>         0.1527
     35 H9          0.8296    2.4683    4.7449 H         1 <0>         0.1709
     36 H10        -1.3529    2.2715    1.1509 H         1 <0>         0.4210
     37 H11         0.0021   -0.0041    0.0020 H         1 <0>         0.0977
     38 H12         1.0099    1.4631    0.0003 H         1 <0>         0.0771
     39 H13        -1.7753    1.2154   -1.2238 H         1 <0>         0.0980
     40 H14        -0.7675    2.6825   -1.2255 H         1 <0>         0.0949
     41 H15         0.9860    1.4765   -2.4981 H         1 <0>         0.1344
     42 H16        -0.0218    0.0093   -2.4963 H         1 <0>         0.1353
     43 H17         0.3818    3.3494   -3.8517 H         1 <0>         0.1239
     44 H18        -1.1978    3.3826   -4.6714 H         1 <0>         0.1236
     45 H19        -1.1131    3.5006   -2.8974 H         1 <0>         0.1223
     46 H20        -0.3729   -0.1350   -4.8259 H         1 <0>         0.1228
     47 H21        -0.7783    1.3221   -5.7644 H         1 <0>         0.1234
     48 H22         0.8259    1.1679   -5.0088 H         1 <0>         0.1233
     49 H23         3.7041    0.3015    0.0222 H         1 <0>         0.0640
     50 H24         3.7978   -1.1346    1.0697 H         1 <0>         0.0702
     51 H25         2.7691   -1.1580   -0.3827 H         1 <0>         0.1096
     52 N3         -0.7747    1.5788   -3.6777 N.4       1 <0>        -0.3982
     53 H26        -1.7649    1.3252   -3.5797 H         1 <0>         0.4327
@<TRIPOS>BOND
     1    1    2 1
     2    1   28 1
     3    1   29 1
     4    1   30 1
     5    2    3 1
     6    2    9 1
     7    2    4 1
     8    4    5 1
     9    4   31 1
    10    4   32 1
    11    5    6 2
    12    5    7 2
    13    5    8 1
    14    8    9 am
    15    8   11 1
    16    9   10 2
    17   11   16 ar
    18   11   12 ar
    19   12   13 ar
    20   12   33 1
    21   13   14 ar
    22   13   34 1
    23   14   15 ar
    24   14   26 1
    25   15   16 ar
    26   15   17 1
    27   16   35 1
    28   17   18 2
    29   17   19 2
    30   17   20 1
    31   20   21 1
    32   20   36 1
    33   21   22 1
    34   21   37 1
    35   21   38 1
    36   22   23 1
    37   22   39 1
    38   22   40 1
    39   23   41 1
    40   23   42 1
    41   23   52 1
    42   24   43 1
    43   24   44 1
    44   24   45 1
    45   24   52 1
    46   25   46 1
    47   25   47 1
    48   25   48 1
    49   25   52 1
    50   26   27 1
    51   27   49 1
    52   27   50 1
    53   27   51 1
    54   52   53 1
