@<TRIPOS>MOLECULE
ZINC39914294
   51    54     0     0     0
SMALL
USER_CHARGES

@<TRIPOS>ATOM
      1 C1         -0.0187    1.5258    0.0104 C.3       1 <0>        -0.1502
      2 C2          0.0021   -0.0041    0.0020 C.3       1 <0>        -0.1434
      3 C3         -1.4333   -0.5336    0.0129 C.3       1 <0>         0.1374
      4 N1         -1.4134   -1.9985    0.0048 N.am      1 <0>        -0.5939
      5 C4         -1.4073   -2.8523   -1.1901 C.3       1 <0>         0.2482
      6 H1         -0.5188   -2.6527   -1.7893 H         1 <0>         0.1110
      7 C5         -1.3857   -4.2703   -0.6888 C.2       1 <0>        -0.1719
      8 C6         -1.3687   -5.6330   -1.0051 C.2       1 <0>         0.1144
      9 N2         -1.3544   -6.3016    0.1312 N.2       1 <0>        -0.2223
     10 N3         -1.3608   -5.4964    1.1332 N.pl3     1 <0>        -0.3319
     11 H2         -1.3524   -5.7664    2.0649 H         1 <0>         0.4544
     12 C7         -1.3804   -4.2041    0.6913 C.2       1 <0>        -0.0595
     13 C8         -1.3919   -2.7923    1.0906 C.2       1 <0>         0.5981
     14 O1         -1.3859   -2.3959    2.2405 O.2       1 <0>        -0.5149
     15 C9         -1.3673   -6.2183   -2.3689 C.ar      1 <0>        -0.0339
     16 C10        -1.3783   -5.3875   -3.4865 C.ar      1 <0>        -0.0799
     17 C11        -1.3766   -5.9371   -4.7537 C.ar      1 <0>        -0.0463
     18 C12        -1.3643   -7.3121   -4.9167 C.ar      1 <0>        -0.0488
     19 C13        -1.3534   -8.1445   -3.8136 C.ar      1 <0>        -0.1364
     20 C14        -1.3492   -7.6056   -2.5371 C.ar      1 <0>         0.1448
     21 O2         -1.3328   -8.4234   -1.4521 O.3       1 <0>        -0.4776
     22 C15        -1.3635   -7.9033   -6.3028 C.3       1 <0>        -0.1236
     23 Cl1        -1.3903   -4.9007   -6.1463 Cl        1 <0>        -0.0610
     24 C16        -2.6493   -2.6087   -2.0081 C.ar      1 <0>        -0.1033
     25 C17        -3.8653   -2.4208   -1.3766 C.ar      1 <0>        -0.0737
     26 C18        -5.0055   -2.1978   -2.1228 C.ar      1 <0>        -0.0957
     27 C19        -4.9300   -2.1618   -3.5101 C.ar      1 <0>        -0.0730
     28 C20        -3.7063   -2.3506   -4.1412 C.ar      1 <0>        -0.1237
     29 C21        -2.5694   -2.5680   -3.3882 C.ar      1 <0>        -0.0863
     30 S1         -6.3824   -1.8782   -4.4665 S.3       1 <0>        -0.1136
     31 C22        -5.7934   -1.9191   -6.1817 C.3       1 <0>        -0.1456
     32 H3          1.0039    1.9031    0.0027 H         1 <0>         0.0607
     33 H4         -0.5459    1.8868   -0.8726 H         1 <0>         0.0577
     34 H5         -0.5289    1.8773    0.9072 H         1 <0>         0.0584
     35 H6          0.5123   -0.3556   -0.8948 H         1 <0>         0.0670
     36 H7          0.5293   -0.3651    0.8851 H         1 <0>         0.0687
     37 H8         -1.9435   -0.1821    0.9097 H         1 <0>         0.0913
     38 H9         -1.9605   -0.1726   -0.8702 H         1 <0>         0.0899
     39 H10        -1.3886   -4.3147   -3.3624 H         1 <0>         0.1462
     40 H11        -1.3439   -9.2162   -3.9467 H         1 <0>         0.1433
     41 H12        -2.2113   -8.6722   -1.1338 H         1 <0>         0.3937
     42 H13        -0.3357   -8.0364   -6.6405 H         1 <0>         0.0808
     43 H14        -1.8683   -8.8692   -6.2862 H         1 <0>         0.0745
     44 H15        -1.8859   -7.2321   -6.9845 H         1 <0>         0.0769
     45 H16        -3.9232   -2.4488   -0.2985 H         1 <0>         0.1232
     46 H17        -5.9549   -2.0518   -1.6291 H         1 <0>         0.1302
     47 H18        -3.6439   -2.3234   -5.2190 H         1 <0>         0.1277
     48 H19        -1.6174   -2.7108   -3.8778 H         1 <0>         0.1303
     49 H20        -5.0464   -1.1388   -6.3280 H         1 <0>         0.0851
     50 H21        -5.3481   -2.8919   -6.3898 H         1 <0>         0.0858
     51 H22        -6.6316   -1.7510   -6.8578 H         1 <0>         0.1109
@<TRIPOS>BOND
     1    1    2 1
     2    1   32 1
     3    1   33 1
     4    1   34 1
     5    2    3 1
     6    2   35 1
     7    2   36 1
     8    3    4 1
     9    3   37 1
    10    3   38 1
    11    4   13 am
    12    4    5 1
    13    5    6 1
    14    5    7 1
    15    5   24 1
    16    7   12 2
    17    7    8 1
    18    8    9 2
    19    8   15 1
    20    9   10 1
    21   10   11 1
    22   10   12 1
    23   12   13 1
    24   13   14 2
    25   15   20 ar
    26   15   16 ar
    27   16   17 ar
    28   16   39 1
    29   17   18 ar
    30   17   23 1
    31   18   19 ar
    32   18   22 1
    33   19   20 ar
    34   19   40 1
    35   20   21 1
    36   21   41 1
    37   22   42 1
    38   22   43 1
    39   22   44 1
    40   24   29 ar
    41   24   25 ar
    42   25   26 ar
    43   25   45 1
    44   26   27 ar
    45   26   46 1
    46   27   28 ar
    47   27   30 1
    48   28   29 ar
    49   28   47 1
    50   29   48 1
    51   30   31 1
    52   31   49 1
    53   31   50 1
    54   31   51 1
