@<TRIPOS>MOLECULE
ZINC12616728
   58    61     0     0     0
SMALL
USER_CHARGES
1-butyl-2-[[5-(4-ethylphenyl)-2H-1,2,4-triazol-3-yl]sulfanylmethyl]benzimidazole-5-sulfonamide
@<TRIPOS>ATOM
      1 C1         -3.3539    9.5242   -5.4555 C.3       1 <0>        -0.1532
      2 C2         -2.1768    8.5719   -5.6756 C.3       1 <0>        -0.1196
      3 C3         -2.5611    7.1684   -5.2031 C.3       1 <0>        -0.1431
      4 C4         -1.3840    6.2160   -5.4233 C.3       1 <0>         0.1019
      5 N1         -1.7519    4.8721   -4.9709 N.pl3     1 <0>        -0.4762
      6 C5         -1.5747    4.3589   -3.7016 C.ar      1 <0>         0.1022
      7 C6         -1.0451    4.8614   -2.5207 C.ar      1 <0>        -0.1218
      8 C7         -1.0192    4.0696   -1.3926 C.ar      1 <0>        -0.0184
      9 C8         -1.5070    2.7710   -1.4335 C.ar      1 <0>        -0.6870
     10 C9         -2.0311    2.2595   -2.5866 C.ar      1 <0>         0.0618
     11 C10        -2.0736    3.0460   -3.7410 C.ar      1 <0>         0.0226
     12 N2         -2.5200    2.8303   -5.0050 N.2       1 <0>        -0.4527
     13 C11        -2.3316    3.8985   -5.7236 C.2       1 <0>         0.2841
     14 C12        -2.7013    4.0368   -7.1780 C.3       1 <0>        -0.0308
     15 S1         -4.3930    4.6659   -7.3134 S.3       1 <0>         0.0485
     16 C13        -4.5570    4.7279   -9.0667 C.2       1 <0>         0.2576
     17 N3         -5.6530    5.1300   -9.7480 N.pl3     1 <0>        -0.4584
     18 H1         -6.4916    5.4370   -9.3693 H         1 <0>         0.4477
     19 N4         -5.3377    5.0189  -11.1118 N.2       1 <0>        -0.2908
     20 C14        -4.1083    4.5616  -11.1842 C.2       1 <0>         0.2843
     21 N5         -3.6366    4.3858   -9.9413 N.2       1 <0>        -0.5290
     22 C15        -3.3632    4.2843  -12.4371 C.ar      1 <0>        -0.0268
     23 C16        -2.0564    3.8039  -12.3818 C.ar      1 <0>        -0.0703
     24 C17        -1.3697    3.5432  -13.5503 C.ar      1 <0>        -0.1232
     25 C18        -1.9727    3.7679  -14.7747 C.ar      1 <0>        -0.0619
     26 C19        -3.2679    4.2496  -14.8355 C.ar      1 <0>        -0.1219
     27 C20        -3.9657    4.5088  -13.6733 C.ar      1 <0>        -0.0777
     28 C21        -1.2160    3.4863  -16.0472 C.3       1 <0>        -0.0897
     29 C22        -0.4570    4.7430  -16.4779 C.3       1 <0>        -0.1478
     30 S2         -1.4563    1.7742    0.0186 S.o2      1 <0>         2.7072
     31 O1         -2.4724    0.7917   -0.1276 O.2       1 <0>        -0.9567
     32 O2         -1.4135    2.6674    1.1230 O.2       1 <0>        -0.9546
     33 N6         -0.0111    0.9658    0.0074 N.pl3     1 <0>        -1.2437
     34 H2         -4.2161    9.1733   -6.0225 H         1 <0>         0.0559
     35 H3         -3.6040    9.5536   -4.3950 H         1 <0>         0.0559
     36 H4         -3.0801   10.5242   -5.7921 H         1 <0>         0.0586
     37 H5         -1.3146    8.9228   -5.1085 H         1 <0>         0.0661
     38 H6         -1.9266    8.5425   -6.7361 H         1 <0>         0.0664
     39 H7         -3.4233    6.8175   -5.7702 H         1 <0>         0.0794
     40 H8         -2.8112    7.1978   -4.1426 H         1 <0>         0.0727
     41 H9         -0.5218    6.5669   -4.8562 H         1 <0>         0.0982
     42 H10        -1.1338    6.1866   -6.4838 H         1 <0>         0.0985
     43 H11        -0.6602    5.8699   -2.4847 H         1 <0>         0.1346
     44 H12        -0.6120    4.4608   -0.4720 H         1 <0>         0.1508
     45 H13        -2.4123    1.2492   -2.6061 H         1 <0>         0.1519
     46 H14        -2.0154    4.7316   -7.6627 H         1 <0>         0.1227
     47 H15        -2.6357    3.0632   -7.6638 H         1 <0>         0.1396
     48 H16        -1.5831    3.6320  -11.4263 H         1 <0>         0.1338
     49 H17        -0.3583    3.1666  -13.5086 H         1 <0>         0.1284
     50 H18        -3.7338    4.4236  -15.7941 H         1 <0>         0.1286
     51 H19        -4.9768    4.8853  -13.7219 H         1 <0>         0.1311
     52 H20        -0.5084    2.6748  -15.8771 H         1 <0>         0.0746
     53 H21        -1.9170    3.1988  -16.8307 H         1 <0>         0.0745
     54 H22         0.0903    4.5393  -17.3983 H         1 <0>         0.0599
     55 H23        -1.1646    5.5544  -16.6480 H         1 <0>         0.0565
     56 H24         0.2440    5.0305  -15.6943 H         1 <0>         0.0564
     57 H25         0.0021   -0.0041    0.0020 H         1 <0>         0.4232
     58 H26         0.8223    1.4622    0.0021 H         1 <0>         0.4191
@<TRIPOS>BOND
     1    1    2 1
     2    1   34 1
     3    1   35 1
     4    1   36 1
     5    2    3 1
     6    2   37 1
     7    2   38 1
     8    3    4 1
     9    3   39 1
    10    3   40 1
    11    4    5 1
    12    4   41 1
    13    4   42 1
    14    5   13 1
    15    5    6 1
    16    6   11 ar
    17    6    7 ar
    18    7    8 ar
    19    7   43 1
    20    8    9 ar
    21    8   44 1
    22    9   10 ar
    23    9   30 1
    24   10   11 ar
    25   10   45 1
    26   11   12 1
    27   12   13 2
    28   13   14 1
    29   14   15 1
    30   14   46 1
    31   14   47 1
    32   15   16 1
    33   16   21 2
    34   16   17 1
    35   17   18 1
    36   17   19 1
    37   19   20 2
    38   20   21 1
    39   20   22 1
    40   22   27 ar
    41   22   23 ar
    42   23   24 ar
    43   23   48 1
    44   24   25 ar
    45   24   49 1
    46   25   26 ar
    47   25   28 1
    48   26   27 ar
    49   26   50 1
    50   27   51 1
    51   28   29 1
    52   28   52 1
    53   28   53 1
    54   29   54 1
    55   29   55 1
    56   29   56 1
    57   30   31 2
    58   30   32 2
    59   30   33 1
    60   33   57 1
    61   33   58 1
