@<TRIPOS>MOLECULE
ZINC40001937
   53    57     0     0     0
SMALL
USER_CHARGES

@<TRIPOS>ATOM
      1 C1          0.3402    2.1370   -0.8018 C.3       1 <0>        -0.1772
      2 C2          0.1323    0.6334   -0.9937 C.3       1 <0>         0.0766
      3 H1         -0.9121    0.4146   -1.2162 H         1 <0>         0.1366
      4 C3          1.0595    0.0880   -2.1132 C.3       1 <0>        -0.1279
      5 C4          2.3718   -0.1331   -1.3185 C.3       1 <0>        -0.1302
      6 H2          3.0590    0.6982   -1.4765 H         1 <0>         0.1209
      7 C5          1.9195   -0.1817    0.1285 C.2       1 <0>         0.4871
      8 O1          2.6466   -0.2802    1.0885 O.2       1 <0>        -0.4321
      9 O2          0.5711   -0.0967    0.1714 O.3       1 <0>        -0.3247
     10 S1          3.1500   -1.6997   -1.7985 S.3       1 <0>        -0.2018
     11 C6          4.7205   -1.7059   -0.8907 C.3       1 <0>         0.3858
     12 H3          5.2754   -2.6212   -1.0967 H         1 <0>         0.1459
     13 N1          4.4803   -1.5636    0.5548 N.pl3     1 <0>        -0.5465
     14 N2          5.1151   -0.3800    0.9488 N.2       1 <0>        -0.1165
     15 C7          5.7012    0.2038   -0.0629 C.2       1 <0>         0.2257
     16 N3          5.5250   -0.5251   -1.2454 N.pl3     1 <0>        -0.6292
     17 C8          6.0381   -0.1820   -2.5740 C.3       1 <0>         0.1265
     18 C9          7.4646   -0.7147   -2.7231 C.3       1 <0>         0.0566
     19 H4          8.0886   -0.3311   -1.9158 H         1 <0>         0.0758
     20 C10         8.0460   -0.2807   -4.0858 C.3       1 <0>        -0.1540
     21 C11         8.8363   -1.5437   -4.5242 C.3       1 <0>        -0.1556
     22 C12         7.9435   -2.6670   -3.9395 C.3       1 <0>         0.0463
     23 O3          7.4544   -2.1466   -2.6910 O.3       1 <0>        -0.3695
     24 C13         6.4170    1.4077    0.0244 C.2       1 <0>         0.1412
     25 C14         6.7202    2.1268    1.1810 C.ar      1 <0>        -0.1535
     26 C15         6.4333    1.9040    2.5446 C.ar      1 <0>        -0.0025
     27 C16         6.8642    2.7919    3.4774 C.ar      1 <0>        -0.1569
     28 C17         7.5904    3.9306    3.1225 C.ar      1 <0>         0.0474
     29 C18         7.9016    4.2073    1.8322 C.ar      1 <0>        -0.2076
     30 C19         7.4854    3.3256    0.8015 C.ar      1 <0>         0.3123
     31 N4          7.6580    3.3680   -0.5052 N.pl3     1 <0>        -0.6088
     32 C20         7.0268    2.1938   -1.1152 C.3       1 <0>         0.0784
     33 H5          1.3869    2.3322   -0.5685 H         1 <0>         0.0542
     34 H6          0.0684    2.6613   -1.7180 H         1 <0>         0.0882
     35 H7         -0.2865    2.4888    0.0177 H         1 <0>         0.0802
     36 H8          0.6801   -0.8513   -2.5156 H         1 <0>         0.1058
     37 H9          1.1977    0.8254   -2.9039 H         1 <0>         0.1104
     38 H10         3.9800   -2.1706    1.1225 H         1 <0>         0.4687
     39 H11         5.4012   -0.6306   -3.3365 H         1 <0>         0.1132
     40 H12         6.0404    0.9014   -2.6939 H         1 <0>         0.0882
     41 H13         7.2484   -0.0569   -4.7942 H         1 <0>         0.0874
     42 H14         8.7132    0.5732   -3.9687 H         1 <0>         0.0859
     43 H15         8.8943   -1.6134   -5.6104 H         1 <0>         0.0918
     44 H16         9.8305   -1.5596   -4.0777 H         1 <0>         0.0820
     45 H17         7.1131   -2.8794   -4.6129 H         1 <0>         0.0679
     46 H18         8.5326   -3.5679   -3.7681 H         1 <0>         0.0922
     47 H19         5.8729    1.0310    2.8451 H         1 <0>         0.1603
     48 H20         6.6395    2.6132    4.5185 H         1 <0>         0.1542
     49 H21         7.9129    4.6102    3.8975 H         1 <0>         0.1589
     50 H22         8.4644    5.0965    1.5896 H         1 <0>         0.1586
     51 H23         7.7728    1.5893   -1.6311 H         1 <0>         0.1642
     52 H24         6.2500    2.5078   -1.8124 H         1 <0>         0.1661
     53 H25         8.1318    4.0643   -0.9865 H         1 <0>         0.4530
@<TRIPOS>BOND
     1    1    2 1
     2    1   33 1
     3    1   34 1
     4    1   35 1
     5    2    3 1
     6    2    9 1
     7    2    4 1
     8    4    5 1
     9    4   36 1
    10    4   37 1
    11    5    6 1
    12    5    7 1
    13    5   10 1
    14    7    8 2
    15    7    9 1
    16   10   11 1
    17   11   12 1
    18   11   16 1
    19   11   13 1
    20   13   14 1
    21   13   38 1
    22   14   15 2
    23   15   16 1
    24   15   24 1
    25   16   17 1
    26   17   18 1
    27   17   39 1
    28   17   40 1
    29   18   19 1
    30   18   23 1
    31   18   20 1
    32   20   21 1
    33   20   41 1
    34   20   42 1
    35   21   22 1
    36   21   43 1
    37   21   44 1
    38   22   23 1
    39   22   45 1
    40   22   46 1
    41   24   32 1
    42   24   25 2
    43   25   30 ar
    44   25   26 ar
    45   26   27 ar
    46   26   47 1
    47   27   28 ar
    48   27   48 1
    49   28   29 ar
    50   28   49 1
    51   29   30 ar
    52   29   50 1
    53   30   31 2
    54   31   32 1
    55   31   53 1
    56   32   51 1
    57   32   52 1
