@<TRIPOS>MOLECULE
ZINC02187491
   54    58     0     0     0
SMALL
USER_CHARGES
N-[4-[(5-ethyl-1,3,4-thiadiazol-2-yl)sulfamoyl]phenyl]-9H-fluorene-2-sulfonamide
@<TRIPOS>ATOM
      1 C1          4.5854   -3.7728    6.6156 C.3       1 <0>        -0.1515
      2 C2          3.4814   -2.7281    6.4403 C.3       1 <0>        -0.0288
      3 C3          4.1005   -1.3918    6.1210 C.2       1 <0>         0.0772
      4 N1          4.4026   -0.8554    4.9561 N.2       1 <0>        -0.2462
      5 N2          4.9237    0.2890    4.8579 N.2       1 <0>        -0.3104
      6 C4          5.2005    1.0252    5.9260 C.2       1 <0>         0.3002
      7 S1          4.6426   -0.0836    7.2167 S.3       1 <0>        -0.0041
      8 N3          5.7654    2.2886    6.0173 N.pl3     1 <0>        -0.9829
      9 S2          6.2023    3.1015    4.6422 S.o2      1 <0>         2.6823
     10 O1          6.9584    2.1914    3.8553 O.2       1 <0>        -0.9108
     11 O2          6.7178    4.3581    5.0598 O.2       1 <0>        -0.9297
     12 C5          4.7243    3.4369    3.7436 C.ar      1 <0>        -0.6741
     13 C6          4.0299    4.6109    3.9713 C.ar      1 <0>        -0.0110
     14 C7          2.8708    4.8768    3.2690 C.ar      1 <0>        -0.1364
     15 C8          2.4028    3.9633    2.3329 C.ar      1 <0>         0.1877
     16 C9          3.1000    2.7826    2.1104 C.ar      1 <0>        -0.1264
     17 C10         4.2612    2.5255    2.8124 C.ar      1 <0>         0.0138
     18 N4          1.2307    4.2288    1.6212 N.pl3     1 <0>        -1.0700
     19 S3          1.3134    4.7006    0.0360 S.o2      1 <0>         2.6898
     20 O3         -0.0193    4.9682   -0.3782 O.2       1 <0>        -0.9447
     21 O4          2.1417    3.7549   -0.6265 O.2       1 <0>        -0.9398
     22 C11         2.1722    6.2386   -0.0057 C.ar      1 <0>        -0.6761
     23 C12         3.5332    6.2633   -0.2519 C.ar      1 <0>        -0.0158
     24 C13         4.2117    7.4636   -0.2859 C.ar      1 <0>        -0.1164
     25 C14         3.5241    8.6597   -0.0713 C.ar      1 <0>         0.0090
     26 C15         2.1546    8.6245    0.1757 C.ar      1 <0>        -0.1143
     27 C16         1.4843    7.4199    0.2079 C.ar      1 <0>         0.0034
     28 C17         1.6903   10.0477    0.3661 C.3       1 <0>        -0.0449
     29 C18         2.9174   10.9114    0.2067 C.ar      1 <0>        -0.0794
     30 C19         3.9936   10.0672   -0.0522 C.ar      1 <0>        -0.0793
     31 C20         5.2633   10.6159   -0.2428 C.ar      1 <0>        -0.0828
     32 C21         5.4409   11.9819   -0.1736 C.ar      1 <0>        -0.1220
     33 C22         4.3652   12.8126    0.0841 C.ar      1 <0>        -0.1002
     34 C23         3.1041   12.2760    0.2736 C.ar      1 <0>        -0.1046
     35 H1          5.1618   -3.8504    5.6937 H         1 <0>         0.0664
     36 H2          5.2432   -3.4729    7.4313 H         1 <0>         0.0600
     37 H3          4.1376   -4.7394    6.8466 H         1 <0>         0.0762
     38 H4          2.9050   -2.6505    7.3621 H         1 <0>         0.0976
     39 H5          2.8236   -3.0280    5.6246 H         1 <0>         0.1098
     40 H6          5.9047    2.6960    6.8865 H         1 <0>         0.4455
     41 H7          4.3945    5.3208    4.6990 H         1 <0>         0.1476
     42 H8          2.3291    5.7940    3.4471 H         1 <0>         0.1414
     43 H9          2.7364    2.0683    1.3865 H         1 <0>         0.1499
     44 H10         4.8059    1.6096    2.6370 H         1 <0>         0.1607
     45 H11         0.3682    4.1369    2.0555 H         1 <0>         0.4312
     46 H12         4.0658    5.3394   -0.4226 H         1 <0>         0.1462
     47 H13         5.2744    7.4783   -0.4781 H         1 <0>         0.1359
     48 H14         0.4218    7.3985    0.3999 H         1 <0>         0.1424
     49 H15         1.2689   10.1747    1.3633 H         1 <0>         0.1056
     50 H16         0.9493   10.3051   -0.3907 H         1 <0>         0.1065
     51 H17         6.1058    9.9711   -0.4446 H         1 <0>         0.1261
     52 H18         6.4236   12.4047   -0.3217 H         1 <0>         0.1304
     53 H19         4.5099   13.8816    0.1372 H         1 <0>         0.1310
     54 H20         2.2655   12.9262    0.4744 H         1 <0>         0.1288
@<TRIPOS>BOND
     1    1    2 1
     2    1   35 1
     3    1   36 1
     4    1   37 1
     5    2    3 1
     6    2   38 1
     7    2   39 1
     8    3    7 1
     9    3    4 2
    10    4    5 1
    11    5    6 2
    12    6    7 1
    13    6    8 1
    14    8    9 1
    15    8   40 1
    16    9   10 2
    17    9   11 2
    18    9   12 1
    19   12   17 ar
    20   12   13 ar
    21   13   14 ar
    22   13   41 1
    23   14   15 ar
    24   14   42 1
    25   15   16 ar
    26   15   18 1
    27   16   17 ar
    28   16   43 1
    29   17   44 1
    30   18   19 1
    31   18   45 1
    32   19   20 2
    33   19   21 2
    34   19   22 1
    35   22   27 ar
    36   22   23 ar
    37   23   24 ar
    38   23   46 1
    39   24   25 ar
    40   24   47 1
    41   25   30 1
    42   25   26 ar
    43   26   27 ar
    44   26   28 1
    45   27   48 1
    46   28   29 1
    47   28   49 1
    48   28   50 1
    49   29   34 ar
    50   29   30 ar
    51   30   31 ar
    52   31   32 ar
    53   31   51 1
    54   32   33 ar
    55   32   52 1
    56   33   34 ar
    57   33   53 1
    58   34   54 1
