@<TRIPOS>MOLECULE
ZINC09757883
   57    59     0     0     0
SMALL
USER_CHARGES
2-[[(4-chlorophenyl)-cyclopropyl-methyl]carbamoyl-methyl-amino]-N-(2,4,6-trimethylphenyl)-acetamide
@<TRIPOS>ATOM
      1 C1          5.4441   -0.8260   -7.0687 C.3       1 <0>        -0.1148
      2 C2          5.0479   -0.5622   -5.6389 C.ar      1 <0>        -0.0825
      3 C3          3.7760   -0.1036   -5.3488 C.ar      1 <0>        -0.1161
      4 C4          3.4098    0.1392   -4.0394 C.ar      1 <0>        -0.0637
      5 C5          4.3205   -0.0778   -3.0136 C.ar      1 <0>         0.1302
      6 C6          5.5989   -0.5329   -3.3088 C.ar      1 <0>        -0.0906
      7 C7          5.9569   -0.7796   -4.6198 C.ar      1 <0>        -0.1170
      8 C8          6.5923   -0.7638   -2.1994 C.3       1 <0>        -0.1127
      9 N1          3.9526    0.1671   -1.6860 N.am      1 <0>        -0.6754
     10 C9          3.4131    1.3540   -1.3442 C.2       1 <0>         0.4929
     11 O1          3.3274    2.2407   -2.1673 O.2       1 <0>        -0.5031
     12 C10         2.9165    1.5793    0.0607 C.3       1 <0>         0.1166
     13 N2          2.3800    2.9376    0.1770 N.am      1 <0>        -0.6140
     14 C11         3.2589    4.0409    0.5726 C.3       1 <0>         0.0814
     15 C12         1.0779    3.1721   -0.0799 C.2       1 <0>         0.7188
     16 O2          0.3485    2.2564   -0.4083 O.2       1 <0>        -0.5808
     17 N3          0.5856    4.4226    0.0217 N.am      1 <0>        -0.7339
     18 C13        -0.8284    4.6785   -0.2634 C.3       1 <0>         0.2364
     19 H1         -1.4250    3.8271    0.0641 H         1 <0>         0.1006
     20 C14        -1.2732    5.9162    0.4723 C.ar      1 <0>        -0.0828
     21 C15        -0.4315    7.0096    0.5571 C.ar      1 <0>        -0.1021
     22 C16        -0.8411    8.1471    1.2269 C.ar      1 <0>        -0.1056
     23 C17        -2.0893    8.1872    1.8223 C.ar      1 <0>        -0.0333
     24 C18        -2.9290    7.0906    1.7419 C.ar      1 <0>        -0.1049
     25 C19        -2.5205    5.9558    1.0670 C.ar      1 <0>        -0.0900
     26 Cl1        -2.6014    9.6128    2.6703 Cl        1 <0>        -0.0666
     27 C20        -1.0162    4.8844   -1.7678 C.3       1 <0>        -0.1718
     28 C21        -2.0971    4.0556   -2.4648 C.3       1 <0>        -0.1685
     29 C22        -0.6191    3.7326   -2.6934 C.3       1 <0>        -0.1722
     30 C23         2.0233    0.6384   -3.7241 C.3       1 <0>        -0.1046
     31 H2          5.8691    0.0799   -7.5010 H         1 <0>         0.0707
     32 H3          6.1846   -1.6252   -7.0990 H         1 <0>         0.0666
     33 H4          4.5649   -1.1234   -7.6404 H         1 <0>         0.0667
     34 H5          3.0683    0.0653   -6.1470 H         1 <0>         0.1238
     35 H6          6.9493   -1.1381   -4.8496 H         1 <0>         0.1245
     36 H7          6.4389   -1.7559   -1.7749 H         1 <0>         0.0708
     37 H8          7.6045   -0.6912   -2.5971 H         1 <0>         0.0691
     38 H9          6.4519   -0.0110   -1.4236 H         1 <0>         0.0643
     39 H10         4.0858   -0.5173   -1.0117 H         1 <0>         0.4076
     40 H11         3.7412    1.4531    0.7622 H         1 <0>         0.1100
     41 H12         2.1319    0.8579    0.2888 H         1 <0>         0.1189
     42 H13         3.2507    4.1406    1.6580 H         1 <0>         0.0610
     43 H14         4.2745    3.8357    0.2342 H         1 <0>         0.0759
     44 H15         2.9053    4.9673    0.1199 H         1 <0>         0.0678
     45 H16         1.1675    5.1531    0.2837 H         1 <0>         0.3958
     46 H17         0.5446    6.9765    0.0961 H         1 <0>         0.1288
     47 H18        -0.1851    9.0028    1.2893 H         1 <0>         0.1358
     48 H19        -3.9034    7.1213    2.2067 H         1 <0>         0.1370
     49 H20        -3.1758    5.0995    1.0045 H         1 <0>         0.1358
     50 H21        -0.8496    5.8996   -2.1278 H         1 <0>         0.1030
     51 H22        -2.6744    3.3637   -1.8515 H         1 <0>         0.0950
     52 H23        -2.6420    4.5256   -3.2834 H         1 <0>         0.0928
     53 H24        -0.1918    3.9901   -3.6625 H         1 <0>         0.0858
     54 H25        -0.2242    2.8282   -2.2306 H         1 <0>         0.1219
     55 H26         1.9840    1.7179   -3.8697 H         1 <0>         0.0814
     56 H27         1.3041    0.1561   -4.3860 H         1 <0>         0.0595
     57 H28         1.7789    0.4024   -2.6884 H         1 <0>         0.0596
@<TRIPOS>BOND
     1    1    2 1
     2    1   31 1
     3    1   32 1
     4    1   33 1
     5    2    7 ar
     6    2    3 ar
     7    3    4 ar
     8    3   34 1
     9    4    5 ar
    10    4   30 1
    11    5    6 ar
    12    5    9 1
    13    6    7 ar
    14    6    8 1
    15    7   35 1
    16    8   36 1
    17    8   37 1
    18    8   38 1
    19    9   10 am
    20    9   39 1
    21   10   11 2
    22   10   12 1
    23   12   13 1
    24   12   40 1
    25   12   41 1
    26   13   14 1
    27   13   15 am
    28   14   42 1
    29   14   43 1
    30   14   44 1
    31   15   16 2
    32   15   17 am
    33   17   18 1
    34   17   45 1
    35   18   19 1
    36   18   20 1
    37   18   27 1
    38   20   25 ar
    39   20   21 ar
    40   21   22 ar
    41   21   46 1
    42   22   23 ar
    43   22   47 1
    44   23   24 ar
    45   23   26 1
    46   24   25 ar
    47   24   48 1
    48   25   49 1
    49   27   29 1
    50   27   28 1
    51   27   50 1
    52   28   29 1
    53   28   51 1
    54   28   52 1
    55   29   53 1
    56   29   54 1
    57   30   55 1
    58   30   56 1
    59   30   57 1
