@<TRIPOS>MOLECULE
ZINC60972389
   41    42     0     0     0
SMALL
USER_CHARGES

@<TRIPOS>ATOM
      1 C1         -0.0187    1.5258    0.0104 C.3       1 <0>        -0.1475
      2 C2          0.0021   -0.0041    0.0020 C.3       1 <0>         0.1212
      3 C3         -1.4042   -0.5572    0.1207 C.2       1 <0>         0.5358
      4 O1         -2.3238   -0.3916   -0.6518 O.2       1 <0>        -0.4563
      5 N1         -1.4195   -1.2719    1.2631 N.am      1 <0>        -0.5653
      6 C4         -0.2306   -1.2476    1.8763 C.2       1 <0>         0.7092
      7 O2          0.0013   -1.8194    2.9234 O.2       1 <0>        -0.5379
      8 N2          0.6795   -0.5198    1.2041 N.am      1 <0>        -0.7163
      9 C5         -2.5930   -1.9866    1.7711 C.3       1 <0>         0.1030
     10 C6         -2.6011   -3.3912    1.2251 C.2       1 <0>         0.5048
     11 O3         -1.7143   -3.7589    0.4848 O.2       1 <0>        -0.4516
     12 N3         -3.5943   -4.2386    1.5598 N.am      1 <0>        -0.6874
     13 C7         -3.6015   -5.4948    1.0715 C.2       1 <0>         0.6956
     14 O4         -2.7124   -5.8634    0.3293 O.2       1 <0>        -0.5240
     15 N4         -4.5946   -6.3422    1.4062 N.am      1 <0>        -0.7370
     16 C8         -4.6025   -7.7076    0.8754 C.3       1 <0>         0.1388
     17 C9         -5.8281   -8.4541    1.4060 C.3       1 <0>        -0.0446
     18 C10        -5.8362   -9.8586    0.8600 C.2       1 <0>        -0.1469
     19 C11        -5.2871  -10.9815    1.3844 C.2       1 <0>        -0.1497
     20 C12        -5.4216  -12.1755    0.7011 C.2       1 <0>        -0.1585
     21 C13        -6.0985  -12.1883   -0.4732 C.2       1 <0>        -0.1691
     22 S1         -6.5782  -10.4769   -0.6415 S.3       1 <0>         0.0396
     23 C14         0.6836   -0.5246   -1.2650 C.3       1 <0>        -0.1499
     24 H1          1.0039    1.9031    0.0027 H         1 <0>         0.0826
     25 H2         -0.5459    1.8868   -0.8726 H         1 <0>         0.0865
     26 H3         -0.5289    1.8773    0.9072 H         1 <0>         0.0682
     27 H4          1.6021   -0.3651    1.4608 H         1 <0>         0.4421
     28 H5         -2.5547   -2.0203    2.8599 H         1 <0>         0.1368
     29 H6         -3.4987   -1.4688    1.4553 H         1 <0>         0.1345
     30 H7         -4.3038   -3.9444    2.1521 H         1 <0>         0.4123
     31 H8         -5.3042   -6.0480    1.9985 H         1 <0>         0.4005
     32 H9         -4.6408   -7.6740   -0.2134 H         1 <0>         0.0751
     33 H10        -3.6968   -8.2255    1.1912 H         1 <0>         0.0762
     34 H11        -5.7898   -8.4877    2.4948 H         1 <0>         0.0952
     35 H12        -6.7338   -7.9362    1.0901 H         1 <0>         0.0883
     36 H13        -4.7523  -10.9437    2.3219 H         1 <0>         0.1340
     37 H14        -4.9933  -13.0846    1.0967 H         1 <0>         0.1351
     38 H15        -6.2991  -13.0190   -1.1336 H         1 <0>         0.1866
     39 H16         1.7050   -0.1466   -1.3097 H         1 <0>         0.0824
     40 H17         0.7000   -1.6143   -1.2473 H         1 <0>         0.0720
     41 H18         0.1315   -0.1837   -2.1408 H         1 <0>         0.0856
@<TRIPOS>BOND
     1    1    2 1
     2    1   24 1
     3    1   25 1
     4    1   26 1
     5    2    8 1
     6    2    3 1
     7    2   23 1
     8    3    4 2
     9    3    5 am
    10    5    6 am
    11    5    9 1
    12    6    7 2
    13    6    8 am
    14    8   27 1
    15    9   10 1
    16    9   28 1
    17    9   29 1
    18   10   11 2
    19   10   12 am
    20   12   13 am
    21   12   30 1
    22   13   14 2
    23   13   15 am
    24   15   16 1
    25   15   31 1
    26   16   17 1
    27   16   32 1
    28   16   33 1
    29   17   18 1
    30   17   34 1
    31   17   35 1
    32   18   22 1
    33   18   19 2
    34   19   20 1
    35   19   36 1
    36   20   21 2
    37   20   37 1
    38   21   22 1
    39   21   38 1
    40   23   39 1
    41   23   40 1
    42   23   41 1
