@<TRIPOS>MOLECULE
ZINC59020659
   44    46     0     0     0
SMALL
USER_CHARGES

@<TRIPOS>ATOM
      1 C1          0.1810    2.7762   -1.3199 C.3       1 <0>        -0.0935
      2 C2         -0.5914    1.5419   -0.9314 C.2       1 <0>         0.1298
      3 N1         -0.9559    1.3658    0.3020 N.2       1 <0>        -0.1891
      4 N2         -1.5251    0.1481    0.6972 N.pl3     1 <0>        -0.5540
      5 C3         -2.0104   -0.0032    1.9833 C.2       1 <0>         0.5582
      6 N3         -2.0034    0.9154    2.9263 N.2       1 <0>        -0.5170
      7 C4         -2.5526    0.4205    4.0406 C.2       1 <0>         0.2153
      8 N4         -2.9167   -0.8206    3.8213 N.2       1 <0>        -0.3219
      9 N5         -2.5800   -1.1171    2.4907 N.pl3     1 <0>        -0.5035
     10 S1         -2.7541    1.2936    5.5577 S.3       1 <0>         0.1202
     11 C5         -3.5488    0.0880    6.6557 C.3       1 <0>        -0.1654
     12 C6         -3.7811    0.7152    8.0061 C.2       1 <0>         0.5407
     13 O1         -3.4437    1.8626    8.2080 O.2       1 <0>        -0.4954
     14 N6         -4.3637    0.0011    8.9895 N.am      1 <0>        -0.6623
     15 C7         -4.5081    0.5563   10.2664 C.ar      1 <0>         0.1560
     16 C8         -4.6051    1.9330   10.4196 C.ar      1 <0>        -0.1199
     17 C9         -4.7479    2.4778   11.6807 C.ar      1 <0>        -0.0927
     18 C10        -4.7940    1.6543   12.7908 C.ar      1 <0>        -0.1229
     19 C11        -4.6977    0.2830   12.6426 C.ar      1 <0>        -0.0901
     20 C12        -4.5604   -0.2692   11.3828 C.ar      1 <0>        -0.0674
     21 Cl1        -4.4468   -1.9915   11.1965 Cl        1 <0>        -0.0652
     22 C13        -0.9332    0.5343   -1.9522 C.ar      1 <0>        -0.0817
     23 C14        -2.1468   -0.1540   -1.8800 C.ar      1 <0>        -0.1224
     24 C15        -2.4604   -1.0948   -2.8384 C.ar      1 <0>        -0.0834
     25 C16        -1.5756   -1.3578   -3.8704 C.ar      1 <0>        -0.0806
     26 C17        -0.3710   -0.6793   -3.9479 C.ar      1 <0>        -0.0839
     27 C18        -0.0473    0.2678   -2.9991 C.ar      1 <0>        -0.0801
     28 Br1        -2.0138   -2.6500   -5.1796 Br        1 <0>        -0.0373
     29 H1          1.2492    2.5818   -1.2232 H         1 <0>         0.0898
     30 H2         -0.0485    3.0384   -2.3527 H         1 <0>         0.0850
     31 H3         -0.0989    3.6012   -0.6648 H         1 <0>         0.0896
     32 H4         -1.5788   -0.5888    0.0687 H         1 <0>         0.4036
     33 H5         -4.5035   -0.2185    6.2283 H         1 <0>         0.1278
     34 H6         -2.9035   -0.7835    6.7660 H         1 <0>         0.1281
     35 H7         -4.6830   -0.8975    8.8125 H         1 <0>         0.4164
     36 H8         -4.5685    2.5771    9.5535 H         1 <0>         0.1606
     37 H9         -4.8234    3.5486   11.8001 H         1 <0>         0.1351
     38 H10        -4.9050    2.0833   13.7757 H         1 <0>         0.1347
     39 H11        -4.7336   -0.3574   13.5115 H         1 <0>         0.1383
     40 H12        -2.8377    0.0500   -1.0754 H         1 <0>         0.1349
     41 H13        -3.3981   -1.6278   -2.7836 H         1 <0>         0.1399
     42 H14         0.3146   -0.8893   -4.7555 H         1 <0>         0.1422
     43 H15         0.8905    0.7995   -3.0632 H         1 <0>         0.1448
     44 H16        -2.7263   -1.9569    2.0280 H         1 <0>         0.4387
@<TRIPOS>BOND
     1    1    2 1
     2    1   29 1
     3    1   30 1
     4    1   31 1
     5    2    3 2
     6    2   22 1
     7    3    4 1
     8    4    5 1
     9    4   32 1
    10    5    9 1
    11    5    6 2
    12    6    7 1
    13    7    8 2
    14    7   10 1
    15    8    9 1
    16    9   44 1
    17   10   11 1
    18   11   12 1
    19   11   33 1
    20   11   34 1
    21   12   13 2
    22   12   14 am
    23   14   15 1
    24   14   35 1
    25   15   20 ar
    26   15   16 ar
    27   16   17 ar
    28   16   36 1
    29   17   18 ar
    30   17   37 1
    31   18   19 ar
    32   18   38 1
    33   19   20 ar
    34   19   39 1
    35   20   21 1
    36   22   27 ar
    37   22   23 ar
    38   23   24 ar
    39   23   40 1
    40   24   25 ar
    41   24   41 1
    42   25   26 ar
    43   25   28 1
    44   26   27 ar
    45   26   42 1
    46   27   43 1
