@<TRIPOS>MOLECULE
ZINC40114214
   72    76     0     0     0
SMALL
USER_CHARGES

@<TRIPOS>ATOM
      1 C1          4.4953   -0.4245    1.3360 C.2       1 <0>        -0.1722
      2 C2          3.6719   -1.4432    1.3165 C.2       1 <0>        -0.1828
      3 C3          2.3969   -1.3969    2.1186 C.3       1 <0>         0.1487
      4 N1          1.2556   -1.6539    1.2368 N.pl3     1 <0>        -0.6152
      5 C4          0.5784   -0.5448    0.5521 C.3       1 <0>         0.1211
      6 C5         -0.9342   -0.7585    0.6944 C.3       1 <0>        -0.1368
      7 C6         -1.3179   -2.0544   -0.0200 C.3       1 <0>        -0.0739
      8 C7         -0.4369   -3.1877    0.4369 C.ar      1 <0>        -0.1568
      9 C8          0.8007   -2.9534    1.0309 C.ar      1 <0>         0.2560
     10 C9          1.6028   -4.0211    1.4357 C.ar      1 <0>        -0.2031
     11 C10         1.1835   -5.3061    1.2505 C.ar      1 <0>        -0.0238
     12 C11        -0.0611   -5.5520    0.6513 C.ar      1 <0>        -0.1800
     13 C12        -0.8696   -4.4733    0.2537 C.ar      1 <0>        -0.0352
     14 C13        -0.5209   -6.9266    0.4508 C.2       1 <0>         0.1159
     15 C14        -1.3596   -7.2265   -0.6018 C.2       1 <0>        -0.1641
     16 C15        -1.6640   -6.2277   -1.5818 C.1       1 <0>         0.2449
     17 N2         -1.9055   -5.4354   -2.3592 N.1       1 <0>        -0.4031
     18 C16        -1.9414   -8.5718   -0.7180 C.2       1 <0>         0.5755
     19 O1         -1.6828   -9.4204    0.1146 O.2       1 <0>        -0.4955
     20 N3         -2.7612   -8.8649   -1.7469 N.am      1 <0>        -0.6161
     21 C17        -3.3093  -10.1324   -1.8563 C.2       1 <0>         0.0410
     22 C18        -4.1604  -10.6109   -2.8407 C.2       1 <0>        -0.2328
     23 C19        -4.5980  -11.9913   -2.7263 C.2       1 <0>        -0.0604
     24 C20        -4.1051  -12.6396   -1.6491 C.2       1 <0>        -0.2260
     25 S1         -3.0898  -11.4442   -0.8313 S.3       1 <0>         0.2917
     26 C21        -4.3694  -14.0601   -1.2554 C.3       1 <0>        -0.0338
     27 C22        -5.5838  -14.5627   -2.0500 C.3       1 <0>        -0.1142
     28 C23        -5.3956  -14.1991   -3.5256 C.3       1 <0>        -0.1189
     29 C24        -5.5278  -12.6858   -3.7103 C.3       1 <0>        -0.0594
     30 C25        -4.6004   -9.7596   -3.9500 C.2       1 <0>         0.5805
     31 O2         -3.9516   -9.7169   -4.9789 O.2       1 <0>        -0.5330
     32 N4         -5.7235   -9.0241   -3.8305 N.am      1 <0>        -0.7173
     33 C26        -6.1633   -8.1732   -4.9391 C.3       1 <0>         0.1083
     34 C27        -7.4543   -7.4517   -4.5472 C.3       1 <0>         0.0683
     35 H1         -8.2007   -8.1781   -4.2259 H         1 <0>         0.0889
     36 C28        -7.9906   -6.6471   -5.7507 C.3       1 <0>        -0.1481
     37 C29        -8.5034   -5.3461   -5.0751 C.3       1 <0>        -0.1557
     38 C30        -7.4747   -5.1854   -3.9276 C.3       1 <0>         0.0488
     39 O3         -7.1905   -6.5249   -3.4875 O.3       1 <0>        -0.3756
     40 H2          4.2604    0.4485    1.9268 H         1 <0>         0.0982
     41 H3          5.4111   -0.4595    0.7647 H         1 <0>         0.1009
     42 H4          3.9068   -2.3162    0.7257 H         1 <0>         0.1117
     43 H5          2.4311   -2.1567    2.8994 H         1 <0>         0.0873
     44 H6          2.2897   -0.4124    2.5740 H         1 <0>         0.0834
     45 H7          0.8623    0.4015    1.0125 H         1 <0>         0.0833
     46 H8          0.8528   -0.5398   -0.5028 H         1 <0>         0.0649
     47 H9         -1.1951   -0.8323    1.7501 H         1 <0>         0.0722
     48 H10        -1.4656    0.0789    0.2423 H         1 <0>         0.0822
     49 H11        -2.3577   -2.2941    0.2021 H         1 <0>         0.0768
     50 H12        -1.2038   -1.9203   -1.0957 H         1 <0>         0.0747
     51 H13         2.5601   -3.8294    1.8973 H         1 <0>         0.1317
     52 H14         1.8070   -6.1304    1.5636 H         1 <0>         0.1349
     53 H15        -1.8276   -4.6585   -0.2091 H         1 <0>         0.1261
     54 H16        -0.2033   -7.7063    1.1273 H         1 <0>         0.1648
     55 H17        -2.9674   -8.1883   -2.4107 H         1 <0>         0.4181
     56 H18        -3.4989  -14.6737   -1.4875 H         1 <0>         0.0819
     57 H19        -4.5820  -14.1120   -0.1876 H         1 <0>         0.0810
     58 H20        -5.6643  -15.6450   -1.9481 H         1 <0>         0.0732
     59 H21        -6.4896  -14.0901   -1.6702 H         1 <0>         0.0677
     60 H22        -4.4065  -14.5186   -3.8539 H         1 <0>         0.0672
     61 H23        -6.1546  -14.7045   -4.1227 H         1 <0>         0.0692
     62 H24        -6.5569  -12.3829   -3.5172 H         1 <0>         0.0760
     63 H25        -5.2498  -12.4158   -4.7290 H         1 <0>         0.0745
     64 H26        -6.2406   -9.0580   -3.0106 H         1 <0>         0.4052
     65 H27        -5.3897   -7.4384   -5.1621 H         1 <0>         0.0716
     66 H28        -6.3442   -8.7891   -5.8201 H         1 <0>         0.0798
     67 H29        -7.1908   -6.4276   -6.4580 H         1 <0>         0.0825
     68 H30        -8.8073   -7.1783   -6.2395 H         1 <0>         0.0879
     69 H31        -8.4591   -4.5022   -5.7635 H         1 <0>         0.0861
     70 H32        -9.5119   -5.4783   -4.6830 H         1 <0>         0.0806
     71 H33        -6.5675   -4.7073   -4.2969 H         1 <0>         0.0615
     72 H34        -7.9051   -4.6036   -3.1125 H         1 <0>         0.0870
@<TRIPOS>BOND
     1    1    2 2
     2    1   40 1
     3    1   41 1
     4    2    3 1
     5    2   42 1
     6    3    4 1
     7    3   43 1
     8    3   44 1
     9    4    9 1
    10    4    5 1
    11    5    6 1
    12    5   45 1
    13    5   46 1
    14    6    7 1
    15    6   47 1
    16    6   48 1
    17    7    8 1
    18    7   49 1
    19    7   50 1
    20    8   13 ar
    21    8    9 ar
    22    9   10 ar
    23   10   11 ar
    24   10   51 1
    25   11   12 ar
    26   11   52 1
    27   12   13 ar
    28   12   14 1
    29   13   53 1
    30   14   15 2
    31   14   54 1
    32   15   16 1
    33   15   18 1
    34   16   17 3
    35   18   19 2
    36   18   20 am
    37   20   21 1
    38   20   55 1
    39   21   25 1
    40   21   22 2
    41   22   23 1
    42   22   30 1
    43   23   29 1
    44   23   24 2
    45   24   25 1
    46   24   26 1
    47   26   27 1
    48   26   56 1
    49   26   57 1
    50   27   28 1
    51   27   58 1
    52   27   59 1
    53   28   29 1
    54   28   60 1
    55   28   61 1
    56   29   62 1
    57   29   63 1
    58   30   31 2
    59   30   32 am
    60   32   33 1
    61   32   64 1
    62   33   34 1
    63   33   65 1
    64   33   66 1
    65   34   35 1
    66   34   39 1
    67   34   36 1
    68   36   37 1
    69   36   67 1
    70   36   68 1
    71   37   38 1
    72   37   69 1
    73   37   70 1
    74   38   39 1
    75   38   71 1
    76   38   72 1
