@<TRIPOS>MOLECULE
ZINC21781192
   59    61     0     0     0
SMALL
USER_CHARGES
(6R)-N'-cycloheptyl-N-isopropyl-5,6-dimethyl-4-oxo-7H-pyrazolo[1,5-d]pyrazine-2,6-dicarboxamide
@<TRIPOS>ATOM
      1 C1          6.4137    6.7056   -2.0102 C.3       1 <0>        -0.1609
      2 C2          6.3362    5.4333   -1.1639 C.3       1 <0>         0.1384
      3 C3          7.0743    5.6542    0.1579 C.3       1 <0>        -0.1654
      4 N1          4.9329    5.1124   -0.8920 N.am      1 <0>        -0.7262
      5 C4          4.5714    3.8415   -0.6267 C.2       1 <0>         0.6082
      6 O1          5.4098    2.9613   -0.6131 O.2       1 <0>        -0.5304
      7 C5          3.1560    3.5179   -0.3524 C.2       1 <0>        -0.0263
      8 C6          2.6334    2.2374   -0.0603 C.2       1 <0>        -0.0763
      9 C7          1.3062    2.4291    0.1164 C.2       1 <0>        -0.0579
     10 N2          1.0545    3.7736   -0.0656 N.pl3     1 <0>        -0.2691
     11 N3          2.1473    4.3741   -0.3350 N.2       1 <0>        -0.2142
     12 C8         -0.3056    4.3114    0.0572 C.3       1 <0>         0.1205
     13 C9         -1.3110    3.2374   -0.3541 C.3       1 <0>         0.1465
     14 N4         -1.0428    1.9450    0.2646 N.am      1 <0>        -0.6112
     15 C10         0.2210    1.4881    0.4423 C.2       1 <0>         0.6047
     16 O2          0.4463    0.3623    0.8436 O.2       1 <0>        -0.4926
     17 C11        -2.1689    1.1204    0.7098 C.3       1 <0>         0.0521
     18 C12        -1.2624    3.0719   -1.8744 C.3       1 <0>        -0.1552
     19 C13        -2.6935    3.6882    0.0414 C.2       1 <0>         0.5264
     20 O3         -3.4515    4.1271   -0.7975 O.2       1 <0>        -0.5057
     21 N5         -3.0876    3.6037    1.3275 N.am      1 <0>        -0.7319
     22 C14        -4.4674    3.9327    1.6939 C.3       1 <0>         0.1522
     23 C15        -4.5952    5.4633    1.8355 C.3       1 <0>        -0.1201
     24 C16        -6.0467    5.8364    1.7011 C.3       1 <0>        -0.1157
     25 C17        -6.7579    5.9382    3.0640 C.3       1 <0>        -0.1207
     26 C18        -6.3598    4.8072    4.0316 C.3       1 <0>        -0.1251
     27 C19        -6.2720    3.4694    3.3484 C.3       1 <0>        -0.1153
     28 C20        -4.8087    3.2317    2.9229 C.3       1 <0>        -0.1360
     29 H1          5.8830    6.5467   -2.9605 H         1 <0>         0.0627
     30 H2          7.4674    6.9465   -2.2144 H         1 <0>         0.0745
     31 H3          5.9464    7.5383   -1.4640 H         1 <0>         0.0627
     32 H4          6.7645    4.5790   -1.7086 H         1 <0>         0.0897
     33 H5          7.0185    4.7395    0.7663 H         1 <0>         0.0612
     34 H6          6.6070    6.4869    0.7041 H         1 <0>         0.0578
     35 H7          8.1280    5.8951   -0.0464 H         1 <0>         0.0674
     36 H8          4.1742    5.9088   -0.9044 H         1 <0>         0.4260
     37 H9          3.1767    1.3064    0.0071 H         1 <0>         0.1777
     38 H10        -0.4896    4.6085    1.1002 H         1 <0>         0.1091
     39 H11        -0.4138    5.1881   -0.5983 H         1 <0>         0.1352
     40 H12        -1.7883    0.1867    1.1495 H         1 <0>         0.0982
     41 H13        -2.8133    0.8848   -0.1500 H         1 <0>         0.0672
     42 H14        -2.7505    1.6706    1.4641 H         1 <0>         0.0831
     43 H15        -1.9831    2.3001   -2.1824 H         1 <0>         0.0785
     44 H16        -0.2493    2.7696   -2.1781 H         1 <0>         0.0688
     45 H17        -1.5198    4.0270   -2.3556 H         1 <0>         0.0886
     46 H18        -2.3733    3.2877    2.1020 H         1 <0>         0.4240
     47 H19        -5.1606    3.5517    0.9295 H         1 <0>         0.0871
     48 H20        -4.2179    5.7731    2.8213 H         1 <0>         0.0693
     49 H21        -4.0069    5.9549    1.0467 H         1 <0>         0.0689
     50 H22        -6.1295    6.8131    1.2020 H         1 <0>         0.0638
     51 H23        -6.5675    5.0739    1.1033 H         1 <0>         0.0640
     52 H24        -6.5000    6.8950    3.5416 H         1 <0>         0.0599
     53 H25        -7.8464    5.8846    2.9145 H         1 <0>         0.0615
     54 H26        -5.3756    5.0291    4.4699 H         1 <0>         0.0613
     55 H27        -7.1091    4.7298    4.8332 H         1 <0>         0.0614
     56 H28        -6.5933    2.6805    4.0444 H         1 <0>         0.0696
     57 H29        -6.9254    3.4660    2.4635 H         1 <0>         0.0692
     58 H30        -4.6682    2.1502    2.7793 H         1 <0>         0.0699
     59 H31        -4.1571    3.5811    3.7374 H         1 <0>         0.0689
@<TRIPOS>BOND
     1    1    2 1
     2    1   29 1
     3    1   30 1
     4    1   31 1
     5    2    3 1
     6    2    4 1
     7    2   32 1
     8    3   33 1
     9    3   34 1
    10    3   35 1
    11    4    5 am
    12    4   36 1
    13    5    6 2
    14    5    7 1
    15    7   11 2
    16    7    8 1
    17    8    9 2
    18    8   37 1
    19    9   15 1
    20    9   10 1
    21   10   11 1
    22   10   12 1
    23   12   13 1
    24   12   38 1
    25   12   39 1
    26   13   14 1
    27   13   18 1
    28   13   19 1
    29   14   15 am
    30   14   17 1
    31   15   16 2
    32   17   40 1
    33   17   41 1
    34   17   42 1
    35   18   43 1
    36   18   44 1
    37   18   45 1
    38   19   20 2
    39   19   21 am
    40   21   22 1
    41   21   46 1
    42   22   28 1
    43   22   23 1
    44   22   47 1
    45   23   24 1
    46   23   48 1
    47   23   49 1
    48   24   25 1
    49   24   50 1
    50   24   51 1
    51   25   26 1
    52   25   52 1
    53   25   53 1
    54   26   27 1
    55   26   54 1
    56   26   55 1
    57   27   28 1
    58   27   56 1
    59   27   57 1
    60   28   58 1
    61   28   59 1
