@<TRIPOS>MOLECULE
ZINC02363749
   56    60     0     0     0
SMALL
USER_CHARGES
(3-hydroxyphenyl)-[(4-methoxyphenyl)methyl]-dimethyl-BLAHdione
@<TRIPOS>ATOM
      1 C1          4.8467    6.3213   -9.4433 C.3       1 <0>        -0.1150
      2 C2          4.7523    5.5859   -8.1313 C.ar      1 <0>        -0.1057
      3 C3          5.4046    4.3712   -7.9724 C.ar      1 <0>        -0.0554
      4 C4          5.3319    3.6818   -6.7817 C.ar      1 <0>        -0.0946
      5 C5          4.5967    4.2048   -5.7215 C.ar      1 <0>         0.1482
      6 C6          3.9399    5.4358   -5.8918 C.ar      1 <0>        -0.2102
      7 C7          4.0247    6.1192   -7.1036 C.ar      1 <0>        -0.0350
      8 C8          3.1657    5.9734   -4.7558 C.2       1 <0>         0.4506
      9 O1          2.5716    7.0343   -4.8317 O.2       1 <0>        -0.4417
     10 C9          3.1477    5.1672   -3.5317 C.2       1 <0>        -0.2558
     11 C10         3.8222    3.9924   -3.4876 C.2       1 <0>         0.1026
     12 O2          4.5150    3.5437   -4.5529 O.3       1 <0>        -0.1956
     13 C11         3.6371    3.3977   -2.1402 C.2       1 <0>         0.5758
     14 O3          4.1183    2.3441   -1.7734 O.2       1 <0>        -0.4832
     15 N1          2.8581    4.1914   -1.3852 N.am      1 <0>        -0.5831
     16 C12         2.4917    5.3633   -2.1898 C.3       1 <0>         0.2317
     17 H1          1.4090    5.4164   -2.3043 H         1 <0>         0.1196
     18 C13         3.0067    6.6213   -1.5392 C.ar      1 <0>        -0.0822
     19 C14         4.2598    6.6334   -0.9544 C.ar      1 <0>        -0.1091
     20 C15         4.7355    7.7861   -0.3576 C.ar      1 <0>        -0.1007
     21 C16         3.9591    8.9289   -0.3431 C.ar      1 <0>        -0.1351
     22 C17         2.7016    8.9192   -0.9286 C.ar      1 <0>         0.1092
     23 C18         2.2290    7.7627   -1.5324 C.ar      1 <0>        -0.1137
     24 O4          1.9363   10.0421   -0.9161 O.3       1 <0>        -0.4978
     25 C19         2.4517    3.9351   -0.0012 C.3       1 <0>         0.1857
     26 C20         1.1558    3.1658    0.0075 C.ar      1 <0>        -0.1604
     27 C21         1.1739    1.7833    0.0004 C.ar      1 <0>        -0.0527
     28 C22        -0.0126    1.0758    0.0080 C.ar      1 <0>        -0.1538
     29 C23        -1.2230    1.7537    0.0174 C.ar      1 <0>         0.1386
     30 C24        -1.2384    3.1409    0.0293 C.ar      1 <0>        -0.2115
     31 C25        -0.0492    3.8437    0.0222 C.ar      1 <0>        -0.0583
     32 O5         -2.3916    1.0599    0.0196 O.3       1 <0>        -0.3162
     33 C26        -3.5994    1.8236    0.0294 C.3       1 <0>         0.0259
     34 C27         6.0472    2.3644   -6.6271 C.3       1 <0>        -0.1141
     35 H2          5.7061    6.9915   -9.4232 H         1 <0>         0.0758
     36 H3          4.9651    5.6031  -10.2547 H         1 <0>         0.0721
     37 H4          3.9374    6.9011   -9.6011 H         1 <0>         0.0716
     38 H5          5.9759    3.9612   -8.7921 H         1 <0>         0.1441
     39 H6          3.5187    7.0650   -7.2300 H         1 <0>         0.1440
     40 H7          4.8680    5.7410   -0.9644 H         1 <0>         0.1204
     41 H8          5.7146    7.7932    0.0981 H         1 <0>         0.1307
     42 H9          4.3309    9.8290    0.1239 H         1 <0>         0.1315
     43 H10         1.2523    7.7540   -1.9932 H         1 <0>         0.1331
     44 H11         2.0707   10.6182   -1.6811 H         1 <0>         0.3939
     45 H12         2.3148    4.8833    0.5188 H         1 <0>         0.1015
     46 H13         3.2233    3.3528    0.5022 H         1 <0>         0.1036
     47 H14         2.1164    1.2561   -0.0114 H         1 <0>         0.1349
     48 H15         0.0021   -0.0041    0.0020 H         1 <0>         0.1335
     49 H16        -2.1794    3.6708    0.0400 H         1 <0>         0.1305
     50 H17        -0.0606    4.9237    0.0277 H         1 <0>         0.1262
     51 H18        -3.6275    2.4476    0.9227 H         1 <0>         0.0573
     52 H19        -3.6362    2.4566   -0.8572 H         1 <0>         0.0565
     53 H20        -4.4557    1.1492    0.0302 H         1 <0>         0.1022
     54 H21         7.0557    2.5403   -6.2530 H         1 <0>         0.0781
     55 H22         5.5027    1.7359   -5.9224 H         1 <0>         0.0758
     56 H23         6.1003    1.8642   -7.5941 H         1 <0>         0.0758
@<TRIPOS>BOND
     1    1    2 1
     2    1   35 1
     3    1   36 1
     4    1   37 1
     5    2    7 ar
     6    2    3 ar
     7    3    4 ar
     8    3   38 1
     9    4    5 ar
    10    4   34 1
    11    5   12 1
    12    5    6 ar
    13    6    7 ar
    14    6    8 1
    15    7   39 1
    16    8    9 2
    17    8   10 1
    18   10   16 1
    19   10   11 2
    20   11   12 1
    21   11   13 1
    22   13   14 2
    23   13   15 am
    24   15   16 1
    25   15   25 1
    26   16   17 1
    27   16   18 1
    28   18   23 ar
    29   18   19 ar
    30   19   20 ar
    31   19   40 1
    32   20   21 ar
    33   20   41 1
    34   21   22 ar
    35   21   42 1
    36   22   23 ar
    37   22   24 1
    38   23   43 1
    39   24   44 1
    40   25   26 1
    41   25   45 1
    42   25   46 1
    43   26   31 ar
    44   26   27 ar
    45   27   28 ar
    46   27   47 1
    47   28   29 ar
    48   28   48 1
    49   29   30 ar
    50   29   32 1
    51   30   31 ar
    52   30   49 1
    53   31   50 1
    54   32   33 1
    55   33   51 1
    56   33   52 1
    57   33   53 1
    58   34   54 1
    59   34   55 1
    60   34   56 1
