@<TRIPOS>MOLECULE
ZINC39923076
   51    54     0     0     0
SMALL
USER_CHARGES

@<TRIPOS>ATOM
      1 C1         -1.4858   -0.8380   -2.0661 C.ar      1 <0>        -0.1537
      2 C2         -0.4570    0.0376   -2.3661 C.ar      1 <0>        -0.0654
      3 C3          0.8592   -0.3678   -2.2527 C.ar      1 <0>        -0.2074
      4 C4          1.1554   -1.6561   -1.8370 C.ar      1 <0>         0.1472
      5 C5          0.1182   -2.5431   -1.5332 C.ar      1 <0>        -0.0629
      6 C6         -1.2052   -2.1239   -1.6510 C.ar      1 <0>        -0.0473
      7 C7          0.4254   -3.9241   -1.0879 C.2       1 <0>         0.0237
      8 C8          1.6669   -4.4249   -0.9372 C.2       1 <0>        -0.1395
      9 C9          1.4300   -5.8505   -0.4714 C.3       1 <0>        -0.0619
     10 H1          1.8410   -6.5625   -1.1870 H         1 <0>         0.1728
     11 N1         -0.0383   -5.9488   -0.4251 N.2       1 <0>        -0.1137
     12 N2         -0.5059   -4.8611   -0.7688 N.2       1 <0>        -0.1415
     13 C10         2.0249   -6.0693    0.8958 C.2       1 <0>         0.5678
     14 O1          1.3141   -6.0400    1.8784 O.2       1 <0>        -0.4695
     15 N3          3.3467   -6.2976    1.0269 N.am      1 <0>        -0.5885
     16 N4          3.8997   -6.5011    2.2980 N.2       1 <0>        -0.2181
     17 C11         5.1473   -6.8373    2.4164 C.2       1 <0>         0.1189
     18 C12         6.0674   -6.6709    1.2757 C.ar      1 <0>        -0.0865
     19 C13         5.7331   -5.8136    0.2242 C.ar      1 <0>        -0.1490
     20 C14         6.5963   -5.6607   -0.8408 C.ar      1 <0>        -0.0924
     21 C15         7.7928   -6.3535   -0.8719 C.ar      1 <0>        -0.1197
     22 C16         8.1338   -7.2080    0.1678 C.ar      1 <0>         0.1147
     23 C17         7.2782   -7.3648    1.2451 C.ar      1 <0>        -0.1123
     24 O2          9.3109   -7.8863    0.1311 O.3       1 <0>        -0.4960
     25 O3          2.4489   -2.0560   -1.7256 O.3       1 <0>        -0.3087
     26 C18         3.4553   -1.0959   -2.0533 C.3       1 <0>         0.0959
     27 C19         4.8175   -1.7142   -1.8717 C.ar      1 <0>        -0.0961
     28 C20         5.4563   -1.6314   -0.6485 C.ar      1 <0>        -0.0803
     29 C21         6.7057   -2.1983   -0.4813 C.ar      1 <0>        -0.1105
     30 C22         7.3171   -2.8486   -1.5384 C.ar      1 <0>        -0.0195
     31 C23         6.6773   -2.9311   -2.7623 C.ar      1 <0>        -0.1201
     32 C24         5.4255   -2.3688   -2.9267 C.ar      1 <0>        -0.0811
     33 Cl1         8.8866   -3.5604   -1.3293 Cl        1 <0>        -0.0599
     34 H2         -2.5119   -0.5125   -2.1528 H         1 <0>         0.1326
     35 H3         -0.6838    1.0424   -2.6907 H         1 <0>         0.1307
     36 H4          1.6578    0.3200   -2.4886 H         1 <0>         0.1338
     37 H5         -2.0106   -2.8044   -1.4174 H         1 <0>         0.1435
     38 H6          2.6107   -3.9283   -1.1082 H         1 <0>         0.1907
     39 H7          3.9151   -6.3211    0.2412 H         1 <0>         0.3978
     40 H8          5.5120   -7.2391    3.3502 H         1 <0>         0.1928
     41 H9          4.7993   -5.2713    0.2452 H         1 <0>         0.1342
     42 H10         6.3367   -4.9981   -1.6531 H         1 <0>         0.1316
     43 H11         8.4645   -6.2296   -1.7085 H         1 <0>         0.1325
     44 H12         7.5447   -8.0253    2.0570 H         1 <0>         0.1402
     45 H13        10.0497   -7.4143    0.5391 H         1 <0>         0.3945
     46 H14         3.3341   -0.7820   -3.0901 H         1 <0>         0.0793
     47 H15         3.3588   -0.2303   -1.3979 H         1 <0>         0.0784
     48 H16         4.9791   -1.1235    0.1765 H         1 <0>         0.1348
     49 H17         7.2048   -2.1333    0.4743 H         1 <0>         0.1368
     50 H18         7.1542   -3.4384   -3.5879 H         1 <0>         0.1394
     51 H19         4.9239   -2.4372   -3.8807 H         1 <0>         0.1367
@<TRIPOS>BOND
     1    1    6 ar
     2    1    2 ar
     3    1   34 1
     4    2    3 ar
     5    2   35 1
     6    3    4 ar
     7    3   36 1
     8    4    5 ar
     9    4   25 1
    10    5    6 ar
    11    5    7 1
    12    6   37 1
    13    7   12 1
    14    7    8 2
    15    8    9 1
    16    8   38 1
    17    9   10 1
    18    9   11 1
    19    9   13 1
    20   11   12 2
    21   13   14 2
    22   13   15 am
    23   15   16 1
    24   15   39 1
    25   16   17 2
    26   17   18 1
    27   17   40 1
    28   18   23 ar
    29   18   19 ar
    30   19   20 ar
    31   19   41 1
    32   20   21 ar
    33   20   42 1
    34   21   22 ar
    35   21   43 1
    36   22   23 ar
    37   22   24 1
    38   23   44 1
    39   24   45 1
    40   25   26 1
    41   26   27 1
    42   26   46 1
    43   26   47 1
    44   27   32 ar
    45   27   28 ar
    46   28   29 ar
    47   28   48 1
    48   29   30 ar
    49   29   49 1
    50   30   31 ar
    51   30   33 1
    52   31   32 ar
    53   31   50 1
    54   32   51 1
