@<TRIPOS>MOLECULE
ZINC39846395
   50    53     0     0     0
SMALL
USER_CHARGES

@<TRIPOS>ATOM
      1 C1         -0.0187    1.5258    0.0104 C.3       1 <0>        -0.1239
      2 C2          0.0021   -0.0041    0.0020 C.3       1 <0>        -0.0055
      3 C3          0.7425   -0.6772   -1.1967 C.3       1 <0>        -0.1149
      4 C4          1.0014   -2.1244   -0.7137 C.3       1 <0>        -0.1168
      5 C5          0.3879   -2.1606    0.7218 C.3       1 <0>        -0.0250
      6 C6          0.7265   -0.7042    1.2097 C.3       1 <0>        -0.0204
      7 C7          0.0836   -0.3575    2.5541 C.3       1 <0>        -0.1452
      8 C8          2.2347   -0.4469    1.2119 C.3       1 <0>        -0.1429
      9 C9         -1.1188   -2.0205    0.4918 C.ar      1 <0>         0.1142
     10 C10        -1.3596   -0.6995    0.0692 C.ar      1 <0>         0.1365
     11 N1         -2.5748   -0.2857   -0.2018 N.ar      1 <0>        -0.3837
     12 C11        -3.6047   -1.1175   -0.0531 C.ar      1 <0>         0.2095
     13 C12        -3.3809   -2.4326    0.3931 C.ar      1 <0>         0.1861
     14 N2         -2.1137   -2.8641    0.6317 N.ar      1 <0>        -0.3804
     15 C13        -4.4821   -3.3333    0.5563 C.1       1 <0>         0.2487
     16 N3         -5.3557   -4.0479    0.6858 N.1       1 <0>        -0.3380
     17 C14        -4.9346   -0.6743   -0.3461 C.1       1 <0>         0.2489
     18 N4         -5.9895   -0.3228   -0.5784 N.1       1 <0>        -0.3374
     19 C15         0.8392   -3.2910    1.6103 C.2       1 <0>         0.5540
     20 O1          1.4151   -3.0519    2.6505 O.2       1 <0>        -0.5149
     21 N5          0.6030   -4.5677    1.2489 N.am      1 <0>        -0.5074
     22 N6          1.0226   -5.6187    2.0749 N.am      1 <0>        -0.5172
     23 C16         0.7863   -6.8954    1.7135 C.2       1 <0>         0.5642
     24 O2          0.2091   -7.1351    0.6708 O.2       1 <0>        -0.5256
     25 C17         1.2290   -8.0040    2.5848 C.ar      1 <0>        -0.1272
     26 C18         1.8871   -7.7317    3.7856 C.ar      1 <0>        -0.0718
     27 C19         2.2978   -8.7702    4.5944 C.ar      1 <0>        -0.1151
     28 C20         2.0590  -10.0815    4.2174 C.ar      1 <0>        -0.0066
     29 C21         1.4070  -10.3579    3.0270 C.ar      1 <0>        -0.1159
     30 C22         0.9857   -9.3276    2.2131 C.ar      1 <0>        -0.0397
     31 Cl1         2.5796  -11.3837    5.2406 Cl        1 <0>        -0.0546
     32 H1          1.0039    1.9031    0.0027 H         1 <0>         0.0770
     33 H2         -0.5459    1.8868   -0.8726 H         1 <0>         0.0750
     34 H3         -0.5289    1.8773    0.9072 H         1 <0>         0.0702
     35 H4          0.1100   -0.6782   -2.0844 H         1 <0>         0.0837
     36 H5          1.6847   -0.1676   -1.3985 H         1 <0>         0.1025
     37 H6          0.4966   -2.8398   -1.3630 H         1 <0>         0.0859
     38 H7          2.0713   -2.3292   -0.6771 H         1 <0>         0.1027
     39 H8         -0.9576   -0.6799    2.5528 H         1 <0>         0.0464
     40 H9          0.6203   -0.8656    3.3553 H         1 <0>         0.0832
     41 H10         0.1301    0.7200    2.7119 H         1 <0>         0.0747
     42 H11         2.4203    0.6249    1.2829 H         1 <0>         0.0738
     43 H12         2.6882   -0.9515    2.0650 H         1 <0>         0.0785
     44 H13         2.6701   -0.8306    0.2893 H         1 <0>         0.0689
     45 H14         0.1424   -4.7590    0.4169 H         1 <0>         0.4356
     46 H15         1.4832   -5.4274    2.9068 H         1 <0>         0.4326
     47 H16         2.0744   -6.7097    4.0803 H         1 <0>         0.1374
     48 H17         2.8069   -8.5608    5.5236 H         1 <0>         0.1447
     49 H18         1.2242  -11.3823    2.7379 H         1 <0>         0.1455
     50 H19         0.4731   -9.5441    1.2875 H         1 <0>         0.1497
@<TRIPOS>BOND
     1    1    2 1
     2    1   32 1
     3    1   33 1
     4    1   34 1
     5    2    6 1
     6    2   10 1
     7    2    3 1
     8    3    4 1
     9    3   35 1
    10    3   36 1
    11    4    5 1
    12    4   37 1
    13    4   38 1
    14    5    6 1
    15    5    9 1
    16    5   19 1
    17    6    7 1
    18    6    8 1
    19    7   39 1
    20    7   40 1
    21    7   41 1
    22    8   42 1
    23    8   43 1
    24    8   44 1
    25    9   14 ar
    26    9   10 ar
    27   10   11 ar
    28   11   12 ar
    29   12   13 ar
    30   12   17 1
    31   13   14 ar
    32   13   15 1
    33   15   16 3
    34   17   18 3
    35   19   20 2
    36   19   21 am
    37   21   22 1
    38   21   45 1
    39   22   23 am
    40   22   46 1
    41   23   24 2
    42   23   25 1
    43   25   30 ar
    44   25   26 ar
    45   26   27 ar
    46   26   47 1
    47   27   28 ar
    48   27   48 1
    49   28   29 ar
    50   28   31 1
    51   29   30 ar
    52   29   49 1
    53   30   50 1
