@<TRIPOS>MOLECULE
ZINC40034099
   46    49     0     0     0
SMALL
USER_CHARGES

@<TRIPOS>ATOM
      1 C1          2.4199   -0.0156   -2.0282 C.3       1 <0>         0.0846
      2 N1          1.8684   -1.3104   -1.6215 N.am      1 <0>        -0.7287
      3 C2          0.5608   -1.4191   -1.3135 C.2       1 <0>         0.5240
      4 O1         -0.1593   -0.4450   -1.3731 O.2       1 <0>        -0.5063
      5 C3         -0.0066   -2.7511   -0.8951 C.3       1 <0>        -0.1259
      6 S1         -1.7785   -2.5721   -0.5502 S.3       1 <0>        -0.1501
      7 C4         -2.3022   -4.2402   -0.0667 C.3       1 <0>         0.3707
      8 H1         -3.3641   -4.2493    0.1789 H         1 <0>         0.1397
      9 N2         -1.5055   -4.7195    1.0748 N.pl3     1 <0>        -0.5834
     10 N3         -0.8321   -5.8656    0.6366 N.2       1 <0>        -0.1655
     11 C5         -1.1174   -6.1364   -0.6099 C.2       1 <0>         0.2609
     12 N4         -2.0144   -5.2024   -1.1430 N.pl3     1 <0>        -0.5937
     13 C6         -2.5341   -5.1850   -2.4403 C.ar      1 <0>         0.1357
     14 C7         -3.7436   -5.8112   -2.7138 C.ar      1 <0>        -0.0964
     15 C8         -4.2547   -5.7924   -3.9966 C.ar      1 <0>        -0.0982
     16 C9         -3.5630   -5.1510   -5.0092 C.ar      1 <0>        -0.0173
     17 C10        -2.3577   -4.5268   -4.7397 C.ar      1 <0>        -0.0979
     18 C11        -1.8450   -4.5366   -3.4574 C.ar      1 <0>        -0.0940
     19 Cl1        -4.2083   -5.1299   -6.6207 Cl        1 <0>        -0.0401
     20 C12        -0.5930   -7.2255   -1.3231 C.2       1 <0>         0.1322
     21 C13         0.2181   -8.2466   -0.8273 C.ar      1 <0>        -0.1395
     22 C14         0.7435   -8.5085    0.4560 C.ar      1 <0>        -0.0128
     23 C15         1.5214   -9.6037    0.6547 C.ar      1 <0>        -0.1474
     24 C16         1.8198  -10.4870   -0.3849 C.ar      1 <0>         0.0471
     25 C17         1.3491  -10.2972   -1.6421 C.ar      1 <0>        -0.2041
     26 C18         0.5292   -9.1749   -1.9265 C.ar      1 <0>         0.3148
     27 N5         -0.0433   -8.7738   -3.0447 N.pl3     1 <0>        -0.5956
     28 C19        -0.7945   -7.5411   -2.7888 C.3       1 <0>         0.0798
     29 H2          3.4846   -0.1232   -2.2355 H         1 <0>         0.0822
     30 H3          1.9083    0.3314   -2.9259 H         1 <0>         0.0655
     31 H4          2.2773    0.7083   -1.2259 H         1 <0>         0.0660
     32 H5          2.4443   -2.0895   -1.5738 H         1 <0>         0.4019
     33 H6          0.1360   -3.4750   -1.6974 H         1 <0>         0.1024
     34 H7          0.5051   -3.0981    0.0026 H         1 <0>         0.1116
     35 H8         -1.4565   -4.3193    1.9570 H         1 <0>         0.4698
     36 H9         -4.2835   -6.3125   -1.9241 H         1 <0>         0.1425
     37 H10        -5.1950   -6.2791   -4.2099 H         1 <0>         0.1491
     38 H11        -1.8196   -4.0276   -5.5320 H         1 <0>         0.1482
     39 H12        -0.9068   -4.0449   -3.2466 H         1 <0>         0.1348
     40 H13         0.5281   -7.8403    1.2767 H         1 <0>         0.1609
     41 H14         1.9190   -9.7959    1.6403 H         1 <0>         0.1562
     42 H15         2.4432  -11.3452   -0.1817 H         1 <0>         0.1612
     43 H16         1.5980  -10.9983   -2.4251 H         1 <0>         0.1612
     44 H17        -1.8533   -7.6944   -2.9976 H         1 <0>         0.1701
     45 H18        -0.4034   -6.7310   -3.4044 H         1 <0>         0.1686
     46 H19         0.0199   -9.2252   -3.9010 H         1 <0>         0.4553
@<TRIPOS>BOND
     1    1    2 1
     2    1   29 1
     3    1   30 1
     4    1   31 1
     5    2    3 am
     6    2   32 1
     7    3    4 2
     8    3    5 1
     9    5    6 1
    10    5   33 1
    11    5   34 1
    12    6    7 1
    13    7    8 1
    14    7   12 1
    15    7    9 1
    16    9   10 1
    17    9   35 1
    18   10   11 2
    19   11   12 1
    20   11   20 1
    21   12   13 1
    22   13   18 ar
    23   13   14 ar
    24   14   15 ar
    25   14   36 1
    26   15   16 ar
    27   15   37 1
    28   16   17 ar
    29   16   19 1
    30   17   18 ar
    31   17   38 1
    32   18   39 1
    33   20   28 1
    34   20   21 2
    35   21   26 ar
    36   21   22 ar
    37   22   23 ar
    38   22   40 1
    39   23   24 ar
    40   23   41 1
    41   24   25 ar
    42   24   42 1
    43   25   26 ar
    44   25   43 1
    45   26   27 2
    46   27   28 1
    47   27   46 1
    48   28   44 1
    49   28   45 1
