@<TRIPOS>MOLECULE
ZINC36812557
   49    51     0     0     0
SMALL
USER_CHARGES

@<TRIPOS>ATOM
      1 C1         -0.8859    1.3215    1.1315 C.3       1 <0>        -0.1481
      2 C2         -0.6129   -0.1592    0.8597 C.3       1 <0>        -0.0859
      3 H1         -1.5580   -0.6952    0.7718 H         1 <0>         0.0773
      4 C3          0.1832   -0.3047   -0.4406 C.3       1 <0>        -0.1150
      5 C4          0.2462   -1.7768   -0.8477 C.3       1 <0>        -0.0710
      6 C5          0.7651   -2.5949    0.3321 C.2       1 <0>        -0.0790
      7 C6          0.7280   -2.0915    1.5861 C.2       1 <0>        -0.1534
      8 S1          1.4172   -3.3597    2.6199 S.3       1 <0>         0.1247
      9 C7          1.7550   -4.5614    1.3739 C.ar      1 <0>         0.1455
     10 C8          1.3164   -3.9323    0.1816 C.ar      1 <0>        -0.2489
     11 C9          1.4610   -4.6700   -1.0290 C.ar      1 <0>         0.5078
     12 N1          1.9972   -5.8823   -0.9121 N.ar      1 <0>        -0.6033
     13 C10         2.3864   -6.4100    0.2390 C.ar      1 <0>         0.3435
     14 N2          2.2772   -5.7713    1.4064 N.ar      1 <0>        -0.4733
     15 S2          3.0788   -8.0303    0.2292 S.3       1 <0>         0.0967
     16 C11         3.1592   -8.4625   -1.5307 C.3       1 <0>        -0.1096
     17 H2          2.1731   -8.3432   -1.9796 H         1 <0>         0.1262
     18 C12         3.6146   -9.9156   -1.6787 C.3       1 <0>        -0.0711
     19 C13         4.9319  -10.1164   -0.9267 C.3       1 <0>        -0.1610
     20 C14         2.5483  -10.8460   -1.0969 C.3       1 <0>        -0.1542
     21 C15         4.1409   -7.5551   -2.2265 C.2       1 <0>         0.5324
     22 O1          5.0369   -7.0349   -1.5968 O.2       1 <0>        -0.4418
     23 N3          4.0228   -7.3220   -3.5486 N.am      1 <0>        -0.6844
     24 C16         4.9008   -6.5105   -4.1709 C.2       1 <0>         0.6957
     25 O2          5.7990   -5.9890   -3.5397 O.2       1 <0>        -0.5299
     26 N4          4.7827   -6.2773   -5.4930 N.am      1 <0>        -0.8579
     27 N5          1.0674   -4.1572   -2.2517 N.pl3     1 <0>        -0.8278
     28 C17         0.2100   -0.7514    2.0124 C.3       1 <0>        -0.0354
     29 H3          0.0604    1.8554    1.2189 H         1 <0>         0.0581
     30 H4         -1.4652    1.7412    0.3091 H         1 <0>         0.0595
     31 H5         -1.4474    1.4229    2.0603 H         1 <0>         0.0593
     32 H6         -0.3034    0.2689   -1.2295 H         1 <0>         0.0740
     33 H7          1.1945    0.0733   -0.2904 H         1 <0>         0.0696
     34 H8         -0.7505   -2.1228   -1.1215 H         1 <0>         0.0803
     35 H9          0.9203   -1.8922   -1.6964 H         1 <0>         0.0781
     36 H10         3.7602  -10.1451   -2.7343 H         1 <0>         0.0921
     37 H11         4.7863   -9.8870    0.1289 H         1 <0>         0.0691
     38 H12         5.2563  -11.1517   -1.0321 H         1 <0>         0.0693
     39 H13         5.6915   -9.4536   -1.3412 H         1 <0>         0.0648
     40 H14         1.6300  -10.7535   -1.6767 H         1 <0>         0.0625
     41 H15         2.9026  -11.8759   -1.1392 H         1 <0>         0.0695
     42 H16         2.3528  -10.5712   -0.0604 H         1 <0>         0.0695
     43 H17         3.3060   -7.7382   -4.0524 H         1 <0>         0.4089
     44 H18         4.0658   -6.6936   -5.9968 H         1 <0>         0.3993
     45 H19         5.4146   -5.6933   -5.9409 H         1 <0>         0.4207
     46 H20         1.4091   -4.5445   -3.0728 H         1 <0>         0.4069
     47 H21         0.4496   -3.4102   -2.2881 H         1 <0>         0.4162
     48 H22         1.0480   -0.0927    2.2402 H         1 <0>         0.0876
     49 H23        -0.4217   -0.8632    2.8936 H         1 <0>         0.0860
@<TRIPOS>BOND
     1    1    2 1
     2    1   29 1
     3    1   30 1
     4    1   31 1
     5    2    3 1
     6    2   28 1
     7    2    4 1
     8    4    5 1
     9    4   32 1
    10    4   33 1
    11    5    6 1
    12    5   34 1
    13    5   35 1
    14    6   10 1
    15    6    7 2
    16    7    8 1
    17    7   28 1
    18    8    9 1
    19    9   14 ar
    20    9   10 ar
    21   10   11 ar
    22   11   12 ar
    23   11   27 1
    24   12   13 ar
    25   13   14 ar
    26   13   15 1
    27   15   16 1
    28   16   17 1
    29   16   18 1
    30   16   21 1
    31   18   19 1
    32   18   20 1
    33   18   36 1
    34   19   37 1
    35   19   38 1
    36   19   39 1
    37   20   40 1
    38   20   41 1
    39   20   42 1
    40   21   22 2
    41   21   23 am
    42   23   24 am
    43   23   43 1
    44   24   25 2
    45   24   26 am
    46   26   44 1
    47   26   45 1
    48   27   46 1
    49   27   47 1
    50   28   48 1
    51   28   49 1
