@<TRIPOS>MOLECULE
ZINC14540813
   73    76     0     0     0
SMALL
USER_CHARGES
ethyl 4-[(6S)-3-oxo-6-(2-pyridylmethoxy)-4-(tetrahydropyran-4-ylmethyl)-1,4-diazepan-1-yl]piperidine-1-carboxylate
@<TRIPOS>ATOM
      1 C1         -0.5491   12.3839   -0.9305 C.3       1 <0>        -0.1552
      2 C2         -0.2756   11.5034   -2.1515 C.3       1 <0>         0.0817
      3 O1          0.3128   10.2478   -1.7208 O.3       1 <0>        -0.3687
      4 C3          0.6161    9.3538   -2.6807 C.2       1 <0>         0.6529
      5 O2          0.3952    9.6156   -3.8465 O.2       1 <0>        -0.5560
      6 N1          1.1648    8.1684   -2.3485 N.am      1 <0>        -0.6059
      7 C4          1.5012    7.1826   -3.3847 C.3       1 <0>         0.1322
      8 C5          0.8381    5.8481   -3.0296 C.3       1 <0>        -0.1607
      9 C6          1.2515    5.4383   -1.6143 C.3       1 <0>         0.0287
     10 C7          0.7746    6.4954   -0.6157 C.3       1 <0>        -0.1556
     11 C8          1.4373    7.8372   -0.9433 C.3       1 <0>         0.1172
     12 C9         -0.8083    4.2485   -1.2160 C.3       1 <0>        -0.0235
     13 C10        -1.5220    2.9105   -1.1821 C.3       1 <0>         0.0632
     14 H1         -1.1902    2.3053   -2.0257 H         1 <0>         0.0921
     15 C11        -1.2200    2.1672    0.1150 C.3       1 <0>         0.0666
     16 N2          0.0374    1.4192   -0.0512 N.am      1 <0>        -0.5927
     17 C12         1.1964    2.0781   -0.1395 C.2       1 <0>         0.4835
     18 O3          2.2309    1.4635   -0.2911 O.2       1 <0>        -0.4777
     19 C13         1.2228    3.5893   -0.0515 C.3       1 <0>        -0.0229
     20 C14         0.0171   -0.0438   -0.1256 C.3       1 <0>         0.1132
     21 C15         0.1618   -0.6281    1.2810 C.3       1 <0>        -0.1055
     22 C16         1.5422   -0.2747    1.8431 C.3       1 <0>        -0.1413
     23 C17         1.7085   -0.9311    3.2163 C.3       1 <0>         0.0580
     24 O4          1.5346   -2.3442    3.0934 O.3       1 <0>        -0.3775
     25 C18         0.2446   -2.7341    2.6179 C.3       1 <0>         0.0596
     26 C19         0.0203   -2.1521    1.2199 C.3       1 <0>        -0.1508
     27 O5         -2.9310    3.1262   -1.2834 O.3       1 <0>        -0.3573
     28 C20        -3.6380    2.0600   -1.9202 C.3       1 <0>         0.1180
     29 C21        -5.1070    2.3920   -1.9724 C.ar      1 <0>         0.1104
     30 C22        -5.5565    3.5871   -1.4428 C.ar      1 <0>        -0.1520
     31 C23        -6.9098    3.8831   -1.4963 C.ar      1 <0>        -0.0731
     32 C24        -7.7642    2.9619   -2.0831 C.ar      1 <0>        -0.1637
     33 C25        -7.2421    1.7878   -2.5915 C.ar      1 <0>         0.1099
     34 N3         -5.9479    1.5417   -2.5276 N.ar      1 <0>        -0.4801
     35 H2          0.3869   12.5815   -0.4081 H         1 <0>         0.0690
     36 H3         -0.9908   13.3265   -1.2539 H         1 <0>         0.0884
     37 H4         -1.2383   11.8709   -0.2597 H         1 <0>         0.0670
     38 H5          0.4136   12.0164   -2.8223 H         1 <0>         0.0755
     39 H6         -1.2115   11.3058   -2.6740 H         1 <0>         0.0739
     40 H7          2.5826    7.0531   -3.4285 H         1 <0>         0.0889
     41 H8          1.1350    7.5267   -4.3520 H         1 <0>         0.1188
     42 H9          1.1574    5.0834   -3.7377 H         1 <0>         0.1070
     43 H10        -0.2456    5.9563   -3.0751 H         1 <0>         0.0959
     44 H11         2.3371    5.3540   -1.5631 H         1 <0>         0.1495
     45 H12        -0.3084    6.5981   -0.6840 H         1 <0>         0.0963
     46 H13         1.0487    6.1915    0.3945 H         1 <0>         0.1041
     47 H14         2.5135    7.7610   -0.7879 H         1 <0>         0.0867
     48 H15         1.0270    8.6144   -0.2985 H         1 <0>         0.1154
     49 H16        -1.0750    4.8075   -0.3191 H         1 <0>         0.1469
     50 H17        -1.1566    4.8038   -2.0869 H         1 <0>         0.1451
     51 H18        -2.0326    1.4749    0.3352 H         1 <0>         0.1206
     52 H19        -1.1161    2.8832    0.9303 H         1 <0>         0.0986
     53 H20         0.6363    3.9159    0.8072 H         1 <0>         0.1551
     54 H21         2.2520    3.9313    0.0573 H         1 <0>         0.1658
     55 H22        -0.9270   -0.3724   -0.5602 H         1 <0>         0.0917
     56 H23         0.8429   -0.3874   -0.7485 H         1 <0>         0.0989
     57 H24        -0.6120   -0.2157    1.9285 H         1 <0>         0.0759
     58 H25         2.3153   -0.6430    1.1687 H         1 <0>         0.0805
     59 H26         1.6292    0.8073    1.9421 H         1 <0>         0.0615
     60 H27         0.9614   -0.5311    3.9018 H         1 <0>         0.0481
     61 H28         2.7059   -0.7198    3.6020 H         1 <0>         0.0955
     62 H29        -0.5217   -2.3576    3.2956 H         1 <0>         0.0516
     63 H30         0.1874   -3.8216    2.5724 H         1 <0>         0.1001
     64 H31        -0.9802   -2.4114    0.8736 H         1 <0>         0.0784
     65 H32         0.7609   -2.5593    0.5316 H         1 <0>         0.0782
     66 H33        -3.2593    1.9273   -2.9336 H         1 <0>         0.0827
     67 H34        -3.4934    1.1395   -1.3547 H         1 <0>         0.0819
     68 H35        -4.8623    4.2813   -0.9927 H         1 <0>         0.1403
     69 H36        -7.2897    4.8089   -1.0903 H         1 <0>         0.1392
     70 H37        -8.8244    3.1594   -2.1418 H         1 <0>         0.1421
     71 H38        -7.9008    1.0652   -3.0501 H         1 <0>         0.1644
     72 N4          0.6597    4.1254   -1.3147 N.4       1 <0>        -0.3785
     73 H39         0.8864    3.4771   -2.0780 H         1 <0>         0.4320
@<TRIPOS>BOND
     1    1    2 1
     2    1   35 1
     3    1   36 1
     4    1   37 1
     5    2    3 1
     6    2   38 1
     7    2   39 1
     8    3    4 1
     9    4    5 2
    10    4    6 am
    11    6   11 1
    12    6    7 1
    13    7    8 1
    14    7   40 1
    15    7   41 1
    16    8    9 1
    17    8   42 1
    18    8   43 1
    19    9   10 1
    20    9   44 1
    21    9   72 1
    22   10   11 1
    23   10   45 1
    24   10   46 1
    25   11   47 1
    26   11   48 1
    27   12   13 1
    28   12   49 1
    29   12   50 1
    30   12   72 1
    31   13   14 1
    32   13   15 1
    33   13   27 1
    34   15   16 1
    35   15   51 1
    36   15   52 1
    37   16   17 am
    38   16   20 1
    39   17   18 2
    40   17   19 1
    41   19   53 1
    42   19   54 1
    43   19   72 1
    44   20   21 1
    45   20   55 1
    46   20   56 1
    47   21   26 1
    48   21   22 1
    49   21   57 1
    50   22   23 1
    51   22   58 1
    52   22   59 1
    53   23   24 1
    54   23   60 1
    55   23   61 1
    56   24   25 1
    57   25   26 1
    58   25   62 1
    59   25   63 1
    60   26   64 1
    61   26   65 1
    62   27   28 1
    63   28   29 1
    64   28   66 1
    65   28   67 1
    66   29   34 ar
    67   29   30 ar
    68   30   31 ar
    69   30   68 1
    70   31   32 ar
    71   31   69 1
    72   32   33 ar
    73   32   70 1
    74   33   34 ar
    75   33   71 1
    76   72   73 1
