@<TRIPOS>MOLECULE
ZINC14459520
   56    60     0     0     0
SMALL
USER_CHARGES

@<TRIPOS>ATOM
      1 C1          7.7750   -0.6125   -2.3924 C.3       1 <0>         0.0243
      2 O1          6.9015   -1.7173   -2.1504 O.3       1 <0>        -0.3057
      3 C2          7.0551   -2.3793   -0.9725 C.ar      1 <0>         0.1092
      4 C3          8.0213   -1.9708   -0.0673 C.ar      1 <0>        -0.1941
      5 C4          8.1758   -2.6446    1.1299 C.ar      1 <0>        -0.0808
      6 C5          7.3683   -3.7268    1.4268 C.ar      1 <0>        -0.1378
      7 C6          6.4027   -4.1398    0.5279 C.ar      1 <0>        -0.0827
      8 C7          6.2384   -3.4650   -0.6712 C.ar      1 <0>         0.0894
      9 O2          5.2849   -3.8663   -1.5540 O.3       1 <0>        -0.4774
     10 C8          5.5245   -5.3201    0.8547 C.3       1 <0>         0.2132
     11 H1          5.3730   -5.9333   -0.0337 H         1 <0>         0.0885
     12 C9          4.1889   -4.8456    1.3985 C.3       1 <0>        -0.0976
     13 H2          4.3120   -4.2964    2.3320 H         1 <0>         0.0913
     14 C10         3.2605   -4.1044    0.4275 C.3       1 <0>        -0.0795
     15 C11         1.8821   -4.4544    0.9917 C.2       1 <0>        -0.1601
     16 C12         1.9409   -5.6042    1.6526 C.2       1 <0>        -0.1562
     17 C13         3.3367   -6.1357    1.5913 C.3       1 <0>        -0.0258
     18 H3          3.4189   -6.7254    0.6783 H         1 <0>         0.0830
     19 C14         3.9477   -6.9231    2.6841 C.ar      1 <0>        -0.1537
     20 C15         3.1974   -7.6637    3.5716 C.ar      1 <0>         0.0354
     21 C16         3.8166   -8.3944    4.5688 C.ar      1 <0>        -0.7254
     22 C17         5.1953   -8.3848    4.6778 C.ar      1 <0>         0.0277
     23 C18         5.9551   -7.6423    3.7976 C.ar      1 <0>        -0.2141
     24 C19         5.3424   -6.8988    2.7960 C.ar      1 <0>         0.2762
     25 N1          6.1337   -6.1268    1.9346 N.pl3     1 <0>        -0.7366
     26 S1          2.8495   -9.3369    5.7006 S.o2      1 <0>         2.6921
     27 O3          3.5819   -9.3867    6.9173 O.2       1 <0>        -0.9585
     28 O4          1.5260   -8.8247    5.6285 O.2       1 <0>        -0.9529
     29 N2          2.7893  -10.8869    5.1207 N.pl3     1 <0>        -1.0660
     30 C20         2.1894  -11.1480    3.8866 C.ar      1 <0>         0.1238
     31 C21         0.8054  -11.1340    3.7686 C.ar      1 <0>        -0.1053
     32 C22         0.2155  -11.3922    2.5469 C.ar      1 <0>        -0.1118
     33 C23         1.0010  -11.6649    1.4419 C.ar      1 <0>        -0.1105
     34 C24         2.3790  -11.6797    1.5559 C.ar      1 <0>        -0.1145
     35 C25         2.9756  -11.4167    2.7734 C.ar      1 <0>        -0.1099
     36 H4          8.8087   -0.9579   -2.3832 H         1 <0>         0.0565
     37 H5          7.5467   -0.1749   -3.3643 H         1 <0>         0.1037
     38 H6          7.6357    0.1380   -1.6143 H         1 <0>         0.0572
     39 H7          8.6540   -1.1262   -0.2971 H         1 <0>         0.1344
     40 H8          8.9293   -2.3252    1.8346 H         1 <0>         0.1309
     41 H9          7.4923   -4.2508    2.3630 H         1 <0>         0.1290
     42 H10         5.5914   -4.5262   -2.1909 H         1 <0>         0.3849
     43 H11         3.4357   -3.0292    0.4634 H         1 <0>         0.0716
     44 H12         3.3746   -4.4834   -0.5881 H         1 <0>         0.0957
     45 H13         0.9924   -3.8542    0.8705 H         1 <0>         0.1307
     46 H14         1.1186   -6.0765    2.1696 H         1 <0>         0.1314
     47 H15         2.1207   -7.6731    3.4879 H         1 <0>         0.1380
     48 H16         5.6783   -8.9596    5.4542 H         1 <0>         0.1370
     49 H17         7.0313   -7.6390    3.8872 H         1 <0>         0.1299
     50 H18         7.0969   -6.1192    2.0492 H         1 <0>         0.4042
     51 H19         3.1707  -11.6134    5.6380 H         1 <0>         0.4241
     52 H20         0.1913  -10.9218    4.6313 H         1 <0>         0.1348
     53 H21        -0.8605  -11.3814    2.4544 H         1 <0>         0.1296
     54 H22         0.5371  -11.8672    0.4878 H         1 <0>         0.1260
     55 H23         2.9896  -11.8930    0.6910 H         1 <0>         0.1263
     56 H24         4.0520  -11.4240    2.8608 H         1 <0>         0.1271
@<TRIPOS>BOND
     1    1    2 1
     2    1   36 1
     3    1   37 1
     4    1   38 1
     5    2    3 1
     6    3    8 ar
     7    3    4 ar
     8    4    5 ar
     9    4   39 1
    10    5    6 ar
    11    5   40 1
    12    6    7 ar
    13    6   41 1
    14    7    8 ar
    15    7   10 1
    16    8    9 1
    17    9   42 1
    18   10   11 1
    19   10   25 1
    20   10   12 1
    21   12   13 1
    22   12   17 1
    23   12   14 1
    24   14   15 1
    25   14   43 1
    26   14   44 1
    27   15   16 2
    28   15   45 1
    29   16   17 1
    30   16   46 1
    31   17   18 1
    32   17   19 1
    33   19   24 ar
    34   19   20 ar
    35   20   21 ar
    36   20   47 1
    37   21   22 ar
    38   21   26 1
    39   22   23 ar
    40   22   48 1
    41   23   24 ar
    42   23   49 1
    43   24   25 1
    44   25   50 1
    45   26   27 2
    46   26   28 2
    47   26   29 1
    48   29   30 1
    49   29   51 1
    50   30   35 ar
    51   30   31 ar
    52   31   32 ar
    53   31   52 1
    54   32   33 ar
    55   32   53 1
    56   33   34 ar
    57   33   54 1
    58   34   35 ar
    59   34   55 1
    60   35   56 1
