@<TRIPOS>MOLECULE
ZINC36506460
   60    62     0     0     0
SMALL
USER_CHARGES

@<TRIPOS>ATOM
      1 C1          1.6708    2.7761    0.6708 C.3       1 <0>        -0.1857
      2 C2          1.5255    1.3245    1.1319 C.3       1 <0>         0.1754
      3 C3          2.6882    0.9651    2.0592 C.3       1 <0>        -0.1678
      4 C4          0.2034    1.1581    1.8836 C.3       1 <0>        -0.1577
      5 N1          1.5391    0.4380   -0.0344 N.am      1 <0>        -0.7258
      6 C5          2.6114    0.4146   -0.8506 C.2       1 <0>         0.5149
      7 O1          3.5650    1.1275   -0.6196 O.2       1 <0>        -0.5005
      8 C6          2.6254   -0.4972   -2.0503 C.3       1 <0>         0.1638
      9 H1          1.7970   -0.2412   -2.7110 H         1 <0>         0.1222
     10 C7          2.4822   -1.9271   -1.5962 C.ar      1 <0>        -0.1837
     11 C8          3.3077   -2.4237   -0.5987 C.ar      1 <0>         0.1644
     12 C9          3.1760   -3.7394   -0.1808 C.ar      1 <0>        -0.1853
     13 C10         2.2186   -4.5584   -0.7601 C.ar      1 <0>         0.1639
     14 C11         1.3925   -4.0615   -1.7570 C.ar      1 <0>        -0.1790
     15 C12         1.5213   -2.7445   -2.1719 C.ar      1 <0>         0.1762
     16 O2          0.7086   -2.2562   -3.1455 O.3       1 <0>        -0.4910
     17 O3          2.0901   -5.8480   -0.3513 O.3       1 <0>        -0.4914
     18 O4          4.2460   -1.6211   -0.0310 O.3       1 <0>        -0.4784
     19 N2          3.8913   -0.3379   -2.7701 N.am      1 <0>        -0.5756
     20 C13         4.7200   -1.5099   -3.0630 C.3       1 <0>         0.2011
     21 C14         4.4483   -1.9785   -4.4693 C.2       1 <0>        -0.0451
     22 C15         5.1641   -1.6505   -5.5599 C.2       1 <0>        -0.1693
     23 C16         4.5621   -2.3071   -6.6578 C.2       1 <0>        -0.2123
     24 C17         3.5144   -2.9972   -6.1724 C.2       1 <0>        -0.0393
     25 O5          3.4538   -2.7990   -4.8455 O.3       1 <0>        -0.1818
     26 C18         4.2937    0.8870   -3.1629 C.2       1 <0>         0.5740
     27 O6          5.2755    1.0067   -3.8694 O.2       1 <0>        -0.5063
     28 C19         3.5408    2.0851   -2.7343 C.ar      1 <0>        -0.0293
     29 C20         2.2264    1.9620   -2.2811 C.ar      1 <0>        -0.1500
     30 C21         1.5297    3.0839   -1.8822 C.ar      1 <0>        -0.0452
     31 C22         2.1309    4.3291   -1.9310 C.ar      1 <0>        -0.0432
     32 C23         3.4334    4.4581   -2.3796 C.ar      1 <0>        -0.0492
     33 C24         4.1433    3.3434   -2.7756 C.ar      1 <0>        -0.0701
     34 N3          1.3772    5.5285   -1.5019 N.pl3     1 <0>         0.0351
     35 O7          0.2388    5.4189   -1.1098 O.2       1 <0>        -0.1586
     36 O8          1.8999    6.6178   -1.5435 O.3       1 <0>        -0.1568
     37 H2          2.6128    2.8947    0.1353 H         1 <0>         0.0799
     38 H3          0.8425    3.0322    0.0102 H         1 <0>         0.0699
     39 H4          1.6607    3.4357    1.5386 H         1 <0>         0.0653
     40 H5          2.6781    1.6247    2.9270 H         1 <0>         0.0678
     41 H6          2.5847   -0.0691    2.3877 H         1 <0>         0.0536
     42 H7          3.6301    1.0837    1.5237 H         1 <0>         0.0803
     43 H8         -0.6249    1.4141    1.2230 H         1 <0>         0.0658
     44 H9          0.0999    0.1239    2.2121 H         1 <0>         0.0632
     45 H10         0.1933    1.8176    2.7514 H         1 <0>         0.0772
     46 H11         0.7764   -0.1321   -0.2192 H         1 <0>         0.4030
     47 H12         3.8194   -4.1264    0.5955 H         1 <0>         0.1451
     48 H13         0.6470   -4.6994   -2.2084 H         1 <0>         0.1456
     49 H14         1.0563   -2.3681   -4.0408 H         1 <0>         0.4015
     50 H15         1.4673   -5.9690    0.3785 H         1 <0>         0.4007
     51 H16         3.9577   -1.1985    0.7895 H         1 <0>         0.3945
     52 H17         5.7726   -1.2442   -2.9656 H         1 <0>         0.1153
     53 H18         4.4805   -2.3088   -2.3612 H         1 <0>         0.1064
     54 H19         6.0318   -1.0082   -5.5910 H         1 <0>         0.1520
     55 H20         4.8818   -2.2629   -7.6884 H         1 <0>         0.1492
     56 H21         2.8390   -3.6099   -6.7510 H         1 <0>         0.2044
     57 H22         1.7558    0.9907   -2.2431 H         1 <0>         0.1747
     58 H23         0.5126    2.9900   -1.5313 H         1 <0>         0.1577
     59 H24         3.8968    5.4329   -2.4157 H         1 <0>         0.1584
     60 H25         5.1616    3.4449   -3.1211 H         1 <0>         0.1561
@<TRIPOS>BOND
     1    1    2 1
     2    1   37 1
     3    1   38 1
     4    1   39 1
     5    2    3 1
     6    2    4 1
     7    2    5 1
     8    3   40 1
     9    3   41 1
    10    3   42 1
    11    4   43 1
    12    4   44 1
    13    4   45 1
    14    5    6 am
    15    5   46 1
    16    6    7 2
    17    6    8 1
    18    8    9 1
    19    8   10 1
    20    8   19 1
    21   10   15 ar
    22   10   11 ar
    23   11   12 ar
    24   11   18 1
    25   12   13 ar
    26   12   47 1
    27   13   14 ar
    28   13   17 1
    29   14   15 ar
    30   14   48 1
    31   15   16 1
    32   16   49 1
    33   17   50 1
    34   18   51 1
    35   19   20 1
    36   19   26 am
    37   20   21 1
    38   20   52 1
    39   20   53 1
    40   21   25 1
    41   21   22 2
    42   22   23 1
    43   22   54 1
    44   23   24 2
    45   23   55 1
    46   24   25 1
    47   24   56 1
    48   26   27 2
    49   26   28 1
    50   28   33 ar
    51   28   29 ar
    52   29   30 ar
    53   29   57 1
    54   30   31 ar
    55   30   58 1
    56   31   32 ar
    57   31   34 1
    58   32   33 ar
    59   32   59 1
    60   33   60 1
    61   34   35 2
    62   34   36 1
