@<TRIPOS>MOLECULE
ZINC39984121
   53    56     0     0     0
SMALL
USER_CHARGES

@<TRIPOS>ATOM
      1 C1         -2.4438    1.5965    1.1276 C.3       1 <0>        -0.1750
      2 C2         -2.3942    0.0921    1.0526 C.2       1 <0>         0.5143
      3 O1         -3.2615   -0.5704    1.5817 O.2       1 <0>        -0.5165
      4 N1         -1.3861   -0.5170    0.3975 N.am      1 <0>        -0.6799
      5 C3         -1.2855   -1.9126    0.4107 C.ar      1 <0>         0.2180
      6 C4         -0.0370   -2.5200    0.4383 C.ar      1 <0>        -0.1636
      7 C5          0.0589   -3.8978    0.4512 C.ar      1 <0>         0.0057
      8 C6         -1.0866   -4.6722    0.4366 C.ar      1 <0>        -0.6745
      9 C7         -2.3313   -4.0704    0.4085 C.ar      1 <0>         0.0049
     10 C8         -2.4341   -2.6931    0.4018 C.ar      1 <0>        -0.1412
     11 S1         -0.9599   -6.4296    0.4531 S.o2      1 <0>         2.6280
     12 O2         -2.1626   -6.9288   -0.1158 O.2       1 <0>        -0.9320
     13 O3          0.3212   -6.7494   -0.0720 O.2       1 <0>        -0.9324
     14 N2         -0.9536   -6.9052    2.0393 N.2       1 <0>        -0.8249
     15 C9         -0.8677   -8.1675    2.3392 C.2       1 <0>         0.4380
     16 C10        -0.8672   -8.6145    3.7837 C.3       1 <0>         0.3092
     17 H1         -1.7857   -8.2512    4.2446 H         1 <0>         0.1880
     18 N3         -0.7681  -10.0570    4.0564 N.pl3     1 <0>        -0.5152
     19 C11        -0.6857  -10.8770    3.0460 C.ar      1 <0>         0.3334
     20 C12        -0.5848  -12.3275    3.2649 C.ar      1 <0>        -0.2039
     21 C13        -0.5016  -13.1456    2.1928 C.ar      1 <0>         0.0534
     22 C14        -0.5092  -12.6459    0.8799 C.ar      1 <0>        -0.0644
     23 C15        -0.5992  -11.3274    0.6006 C.ar      1 <0>        -0.0832
     24 C16        -0.6915  -10.3772    1.6491 C.ar      1 <0>         0.2867
     25 N4         -0.7837   -9.0936    1.3708 N.2       1 <0>        -0.4529
     26 N5          0.2553   -7.9551    4.4554 N.pl3     1 <0>        -0.7158
     27 C17         0.0804   -7.3990    5.7274 C.ar      1 <0>         0.1816
     28 C18         1.1642   -6.8495    6.4001 C.ar      1 <0>        -0.1362
     29 C19         0.9917   -6.3009    7.6552 C.ar      1 <0>        -0.0353
     30 C20        -0.2656   -6.2984    8.2451 C.ar      1 <0>        -0.1556
     31 C21        -1.3493   -6.8483    7.5727 C.ar      1 <0>        -0.0672
     32 C22        -1.1780   -7.3914    6.3150 C.ar      1 <0>        -0.1678
     33 S2         -0.4858   -5.5982    9.8470 S.3       1 <0>         0.2136
     34 C23        -2.2195   -5.8197   10.1789 C.1       1 <0>         0.1524
     35 N6         -3.3265   -5.9611   10.3909 N.1       1 <0>        -0.3520
     36 H2         -3.3238    1.9032    1.6929 H         1 <0>         0.1023
     37 H3         -1.5462    1.9653    1.6241 H         1 <0>         0.0967
     38 H4         -2.4972    2.0089    0.1201 H         1 <0>         0.0974
     39 H5         -0.7303    0.0120   -0.0831 H         1 <0>         0.4205
     40 H6          0.8581   -1.9157    0.4494 H         1 <0>         0.1443
     41 H7          1.0296   -4.3708    0.4723 H         1 <0>         0.1459
     42 H8         -3.2241   -4.6781    0.3968 H         1 <0>         0.1452
     43 H9         -3.4066   -2.2237    0.3851 H         1 <0>         0.1551
     44 H10        -0.5769  -12.7323    4.2661 H         1 <0>         0.1852
     45 H11        -0.4270  -14.2116    2.3494 H         1 <0>         0.1815
     46 H12        -0.4398  -13.3451    0.0597 H         1 <0>         0.1779
     47 H13        -0.6008  -10.9951   -0.4270 H         1 <0>         0.1885
     48 H14         1.1198   -7.9039    4.0184 H         1 <0>         0.4211
     49 H15         2.1420   -6.8518    5.9415 H         1 <0>         0.1421
     50 H16         1.8345   -5.8739    8.1784 H         1 <0>         0.1478
     51 H17        -2.3269   -6.8470    8.0317 H         1 <0>         0.1288
     52 H18        -2.0217   -7.8143    5.7899 H         1 <0>         0.1251
     53 H19        -0.7637  -10.3903    4.9673 H         1 <0>         0.4568
@<TRIPOS>BOND
     1    1    2 1
     2    1   36 1
     3    1   37 1
     4    1   38 1
     5    2    3 2
     6    2    4 am
     7    4    5 1
     8    4   39 1
     9    5   10 ar
    10    5    6 ar
    11    6    7 ar
    12    6   40 1
    13    7    8 ar
    14    7   41 1
    15    8    9 ar
    16    8   11 1
    17    9   10 ar
    18    9   42 1
    19   10   43 1
    20   11   12 2
    21   11   13 2
    22   11   14 1
    23   14   15 2
    24   15   25 1
    25   15   16 1
    26   16   17 1
    27   16   18 1
    28   16   26 1
    29   18   19 2
    30   18   53 1
    31   19   24 ar
    32   19   20 ar
    33   20   21 ar
    34   20   44 1
    35   21   22 ar
    36   21   45 1
    37   22   23 ar
    38   22   46 1
    39   23   24 ar
    40   23   47 1
    41   24   25 2
    42   26   27 1
    43   26   48 1
    44   27   32 ar
    45   27   28 ar
    46   28   29 ar
    47   28   49 1
    48   29   30 ar
    49   29   50 1
    50   30   31 ar
    51   30   33 1
    52   31   32 ar
    53   31   51 1
    54   32   52 1
    55   33   34 1
    56   34   35 3
