@<TRIPOS>MOLECULE
ZINC04121490
   41    43     0     0     0
SMALL
USER_CHARGES
4-[(4,6-difluorobenzothiazol-2-yl)aminocarbamoyl]-N,N-dimethyl-benzenesulfonamide
@<TRIPOS>ATOM
      1 C1          2.4760   -3.1283   -2.3187 C.3       1 <0>         0.0896
      2 N1          1.2121   -2.9261   -1.6061 N.pl3     1 <0>        -1.0033
      3 C2         -0.0612   -3.1499   -2.2951 C.3       1 <0>         0.0789
      4 S1          1.2227   -2.4445   -0.0217 S.o2      1 <0>         2.6905
      5 O1          2.4766   -2.8427    0.5154 O.2       1 <0>        -0.9459
      6 O2         -0.0139   -2.8640    0.5386 O.2       1 <0>        -0.9469
      7 C3          1.2078   -0.6825   -0.0127 C.ar      1 <0>        -0.6525
      8 C4          0.0021   -0.0041    0.0020 C.ar      1 <0>        -0.0238
      9 C5         -0.0166    1.3754    0.0096 C.ar      1 <0>        -0.0725
     10 C6          1.1843    2.0865    0.0020 C.ar      1 <0>        -0.0735
     11 C7          2.3972    1.3959   -0.0129 C.ar      1 <0>        -0.1056
     12 C8          2.4019    0.0164   -0.0199 C.ar      1 <0>        -0.0242
     13 C9          1.1718    3.5649    0.0095 C.2       1 <0>         0.5607
     14 O3          0.1141    4.1637    0.0224 O.2       1 <0>        -0.5197
     15 N2          2.3332    4.2487    0.0021 N.am      1 <0>        -0.5069
     16 N3          2.3213    5.6496    0.0093 N.pl3     1 <0>        -0.4604
     17 C10         3.5114    6.3503    0.0017 C.2       1 <0>         0.3992
     18 N4          4.7397    5.8869   -0.0063 N.2       1 <0>        -0.5742
     19 C11         5.8217    6.6987   -0.0173 C.ar      1 <0>         0.0883
     20 C12         7.1886    6.3314   -0.0314 C.ar      1 <0>         0.1694
     21 C13         8.1720    7.2887   -0.0355 C.ar      1 <0>        -0.1693
     22 C14         7.8645    8.6434   -0.0260 C.ar      1 <0>         0.1368
     23 C15         6.5369    9.0363   -0.0121 C.ar      1 <0>        -0.0943
     24 C16         5.5475    8.0839   -0.0080 C.ar      1 <0>        -0.1255
     25 S2          3.7711    8.1185    0.0082 S.3       1 <0>         0.0752
     26 F1          8.8500    9.5674   -0.0306 F         1 <0>        -0.1183
     27 F2          7.5289    5.0240   -0.0405 F         1 <0>        -0.1167
     28 H1          2.8006   -4.1617   -2.1966 H         1 <0>         0.0650
     29 H2          2.3340   -2.9148   -3.3781 H         1 <0>         0.0768
     30 H3          3.2338   -2.4589   -1.9116 H         1 <0>         0.0726
     31 H4         -0.3882   -2.2223   -2.7648 H         1 <0>         0.0579
     32 H5          0.0685   -3.9174   -3.0581 H         1 <0>         0.0816
     33 H6         -0.8115   -3.4767   -1.5750 H         1 <0>         0.0861
     34 H7         -0.9265   -0.5556    0.0079 H         1 <0>         0.1527
     35 H8         -0.9585    1.9038    0.0169 H         1 <0>         0.1520
     36 H9          3.3299    1.9403   -0.0185 H         1 <0>         0.1389
     37 H10         3.3396   -0.5192   -0.0306 H         1 <0>         0.1512
     38 H11         3.1773    3.7709   -0.0082 H         1 <0>         0.4363
     39 H12         1.4772    6.1275    0.0196 H         1 <0>         0.4584
     40 H13         9.2075    6.9821   -0.0467 H         1 <0>         0.1608
     41 H14         6.2810   10.0855   -0.0042 H         1 <0>         0.1546
@<TRIPOS>BOND
     1    1    2 1
     2    1   28 1
     3    1   29 1
     4    1   30 1
     5    2    3 1
     6    2    4 1
     7    3   31 1
     8    3   32 1
     9    3   33 1
    10    4    5 2
    11    4    6 2
    12    4    7 1
    13    7   12 ar
    14    7    8 ar
    15    8    9 ar
    16    8   34 1
    17    9   10 ar
    18    9   35 1
    19   10   11 ar
    20   10   13 1
    21   11   12 ar
    22   11   36 1
    23   12   37 1
    24   13   14 2
    25   13   15 am
    26   15   16 1
    27   15   38 1
    28   16   17 1
    29   16   39 1
    30   17   25 1
    31   17   18 2
    32   18   19 1
    33   19   24 ar
    34   19   20 ar
    35   20   21 ar
    36   20   27 1
    37   21   22 ar
    38   21   40 1
    39   22   23 ar
    40   22   26 1
    41   23   24 ar
    42   23   41 1
    43   24   25 1
