@<TRIPOS>MOLECULE
ZINC24916116
   49    52     0     0     0
SMALL
USER_CHARGES
3-[(5S)-5-ethyl-4,5,6,7-tetrahydrobenzothiophen-2-yl]-4-methyl-5-[(1R)-1-(3-methyl-1,2,4-oxadiazol-5-yl)ethyl]sulfanyl-1,2,4-triazole
@<TRIPOS>ATOM
      1 C1         10.4903    6.6450    2.4349 C.3       1 <0>        -0.1582
      2 C2          9.8116    7.8499    1.7804 C.3       1 <0>        -0.1197
      3 C3          8.3148    7.8260    2.0965 C.3       1 <0>        -0.0900
      4 H1          8.1651    7.7733    3.1850 H         1 <0>         0.0751
      5 C4          7.6617    9.1028    1.5596 C.3       1 <0>        -0.1113
      6 C5          6.2306    9.1935    2.1112 C.3       1 <0>        -0.0458
      7 C6          5.5684    7.8674    1.9189 C.2       1 <0>        -0.1266
      8 C7          6.1640    6.6778    1.6194 C.2       1 <0>        -0.1211
      9 C8          5.3279    5.5751    1.4942 C.2       1 <0>        -0.0817
     10 C9          3.9772    5.7246    1.6606 C.2       1 <0>        -0.1123
     11 S1          3.8440    7.4691    2.0224 S.3       1 <0>         0.0744
     12 C10         2.9134    4.7115    1.5712 C.2       1 <0>         0.2778
     13 N1          3.0739    3.4064    1.5746 N.2       1 <0>        -0.2548
     14 N2          1.9323    2.8238    1.4817 N.2       1 <0>        -0.2766
     15 C11         0.9723    3.7177    1.4133 C.2       1 <0>         0.1550
     16 N3          1.5614    4.9506    1.4618 N.pl3     1 <0>        -0.4581
     17 C12         0.8939    6.2537    1.4112 C.3       1 <0>         0.0615
     18 S2         -0.7534    3.3890    1.2768 S.3       1 <0>         0.0704
     19 C13        -0.7288    1.5792    1.2668 C.3       1 <0>         0.0063
     20 H2         -0.2440    1.0458    2.0977 H         1 <0>         0.1549
     21 C14        -0.0127    1.0858    0.0080 C.3       1 <0>        -0.1583
     22 C15        -2.1427    1.0576    1.2775 C.2       1 <0>         0.1864
     23 N4         -2.6091    0.0810    2.0179 N.2       1 <0>        -0.4618
     24 C16        -3.9095   -0.0303    1.6929 C.2       1 <0>         0.1736
     25 N5         -4.1610    0.8626    0.7829 N.2       1 <0>        -0.3765
     26 O1         -3.1592    1.4981    0.5301 O.3       1 <0>         0.0868
     27 C17        -4.8929   -1.0136    2.2735 C.3       1 <0>        -0.0686
     28 C18         7.6781    6.5982    1.4445 C.3       1 <0>        -0.0557
     29 H3         11.5664    6.6622    2.2076 H         1 <0>         0.0548
     30 H4         10.0476    5.7173    2.0433 H         1 <0>         0.0572
     31 H5         10.3448    6.6893    3.5243 H         1 <0>         0.0545
     32 H6         10.2543    8.7776    2.1721 H         1 <0>         0.0649
     33 H7          9.9571    7.8057    0.6910 H         1 <0>         0.0642
     34 H8          8.2439    9.9774    1.8855 H         1 <0>         0.0773
     35 H9          7.6369    9.0677    0.4604 H         1 <0>         0.0703
     36 H10         6.2654    9.4460    3.1813 H         1 <0>         0.0891
     37 H11         5.6771    9.9737    1.5682 H         1 <0>         0.0861
     38 H12         5.7415    4.6046    1.2629 H         1 <0>         0.1436
     39 H13        -0.1925    6.1059    1.3223 H         1 <0>         0.1043
     40 H14         1.2594    6.8193    0.5415 H         1 <0>         0.0981
     41 H15         1.1136    6.8142    2.3318 H         1 <0>         0.0940
     42 H16         0.0022   -0.0141    0.0020 H         1 <0>         0.0803
     43 H17         1.0193    1.4666    0.0002 H         1 <0>         0.1011
     44 H18        -0.5448    1.4502   -0.8831 H         1 <0>         0.0746
     45 H19        -5.8792   -0.8625    1.8105 H         1 <0>         0.0907
     46 H20        -4.9698   -0.8573    3.3596 H         1 <0>         0.0946
     47 H21        -4.5474   -2.0387    2.0741 H         1 <0>         0.0946
     48 H22         7.9291    6.5801    0.3737 H         1 <0>         0.0794
     49 H23         8.0615    5.6868    1.9265 H         1 <0>         0.0810
@<TRIPOS>BOND
     1    1    2 1
     2    1   29 1
     3    1   30 1
     4    1   31 1
     5    2    3 1
     6    2   32 1
     7    2   33 1
     8    3    4 1
     9    3   28 1
    10    3    5 1
    11    5    6 1
    12    5   34 1
    13    5   35 1
    14    6    7 1
    15    6   36 1
    16    6   37 1
    17    7   11 1
    18    7    8 2
    19    8    9 1
    20    8   28 1
    21    9   10 2
    22    9   38 1
    23   10   11 1
    24   10   12 1
    25   12   16 1
    26   12   13 2
    27   13   14 1
    28   14   15 2
    29   15   16 1
    30   15   18 1
    31   16   17 1
    32   17   39 1
    33   17   40 1
    34   17   41 1
    35   18   19 1
    36   19   20 1
    37   19   21 1
    38   19   22 1
    39   21   42 1
    40   21   43 1
    41   21   44 1
    42   22   26 1
    43   22   23 2
    44   23   24 1
    45   24   25 2
    46   24   27 1
    47   25   26 1
    48   27   45 1
    49   27   46 1
    50   27   47 1
    51   28   48 1
    52   28   49 1
