@<TRIPOS>MOLECULE
ZINC21864910
   66    69     0     0     0
SMALL
USER_CHARGES
(3S)-6-(2-furyl)-2-isopentyl-3-methyl-N-[(1R,2S)-2-methylcyclohexyl]-1-oxo-4H-pyrrolo[1,2-d]pyrazine-3-carboxamide
@<TRIPOS>ATOM
      1 C1         -1.5102   -2.0853   -3.7097 C.3       1 <0>        -0.1490
      2 C2         -2.8271   -2.1458   -4.4861 C.3       1 <0>        -0.0972
      3 H1         -2.6157   -2.2943   -5.5553 H         1 <0>         0.0857
      4 C3         -3.6724   -3.3106   -3.9667 C.3       1 <0>        -0.1137
      5 C4         -4.9893   -3.3711   -4.7431 C.3       1 <0>        -0.1214
      6 C5         -5.7549   -2.0603   -4.5518 C.3       1 <0>        -0.1196
      7 C6         -4.9097   -0.8955   -5.0712 C.3       1 <0>        -0.1282
      8 C7         -3.5927   -0.8350   -4.2948 C.3       1 <0>         0.1519
      9 H2         -2.9859    0.0201   -4.6274 H         1 <0>         0.0865
     10 N1         -3.8741   -0.6372   -2.8707 N.am      1 <0>        -0.7170
     11 C8         -4.0662    0.6064   -2.3881 C.2       1 <0>         0.5075
     12 O1         -4.0062    1.5618   -3.1328 O.2       1 <0>        -0.5315
     13 C9         -4.3556    0.8099   -0.9233 C.3       1 <0>         0.1495
     14 C10        -3.0318    0.8682   -0.1616 C.3       1 <0>         0.1009
     15 N2         -2.4677   -0.4818   -0.0731 N.pl3     1 <0>        -0.4243
     16 C11        -1.1754   -0.8833    0.0081 C.2       1 <0>         0.1448
     17 C12        -1.1562   -2.2671    0.0919 C.2       1 <0>        -0.1772
     18 C13        -2.4780   -2.7143    0.0623 C.2       1 <0>        -0.0806
     19 C14        -3.2785   -1.6113   -0.0495 C.2       1 <0>        -0.0755
     20 C15        -4.7368   -1.4925   -0.1478 C.2       1 <0>         0.5874
     21 O2         -5.4719   -2.4444    0.0415 O.2       1 <0>        -0.4984
     22 N3         -5.2219   -0.2678   -0.4599 N.am      1 <0>        -0.6088
     23 C16        -6.6594   -0.0177   -0.3278 C.3       1 <0>         0.0999
     24 C17        -7.3592   -0.3566   -1.6455 C.3       1 <0>        -0.1304
     25 C18        -8.8604   -0.0953   -1.5076 C.3       1 <0>        -0.0926
     26 C19        -9.1003    1.4007   -1.2950 C.3       1 <0>        -0.1530
     27 C20        -9.5764   -0.5508   -2.7807 C.3       1 <0>        -0.1475
     28 C21         0.0021   -0.0041    0.0020 C.2       1 <0>         0.0291
     29 C22         1.3044   -0.4092   -0.0126 C.2       1 <0>        -0.1624
     30 C23         2.0911    0.7572   -0.0138 C.2       1 <0>        -0.2087
     31 C24         1.2438    1.8068   -0.0001 C.2       1 <0>        -0.0259
     32 O3         -0.0162    1.3438    0.0094 O.3       1 <0>        -0.1780
     33 C25        -5.0866    2.1424   -0.7470 C.3       1 <0>        -0.1503
     34 H3         -0.9598   -3.0277   -3.8473 H         1 <0>         0.0594
     35 H4         -1.7215   -1.9368   -2.6404 H         1 <0>         0.0589
     36 H5         -0.9025   -1.2479   -4.0832 H         1 <0>         0.0525
     37 H6         -3.1220   -4.2530   -4.1043 H         1 <0>         0.0701
     38 H7         -3.8837   -3.1622   -2.8974 H         1 <0>         0.0557
     39 H8         -4.7780   -3.5196   -5.8124 H         1 <0>         0.0642
     40 H9         -5.5970   -4.2085   -4.3697 H         1 <0>         0.0641
     41 H10        -6.7017   -2.1039   -5.1101 H         1 <0>         0.0620
     42 H11        -5.9662   -1.9118   -3.4826 H         1 <0>         0.0627
     43 H12        -4.6985   -1.0440   -6.1405 H         1 <0>         0.0722
     44 H13        -5.4601    0.0469   -4.9336 H         1 <0>         0.0659
     45 H14        -3.9286   -1.5037   -2.1953 H         1 <0>         0.4152
     46 H15        -2.3308    1.5273   -0.6947 H         1 <0>         0.1195
     47 H16        -3.2080    1.2620    0.8503 H         1 <0>         0.1084
     48 H17        -0.2759   -2.8880    0.1689 H         1 <0>         0.1561
     49 H18        -2.8073   -3.7416    0.1133 H         1 <0>         0.1591
     50 H19        -7.0685   -0.6463    0.4769 H         1 <0>         0.0897
     51 H20        -6.8265    1.0423   -0.0859 H         1 <0>         0.0938
     52 H21        -6.9500    0.2719   -2.4502 H         1 <0>         0.0637
     53 H22        -7.1922   -1.4166   -1.8873 H         1 <0>         0.0718
     54 H23        -9.2525   -0.6555   -0.6460 H         1 <0>         0.0731
     55 H24       -10.1796    1.5885   -1.1959 H         1 <0>         0.0572
     56 H25        -8.7082    1.9610   -2.1566 H         1 <0>         0.0554
     57 H26        -8.5855    1.7281   -0.3797 H         1 <0>         0.0548
     58 H27       -10.6557   -0.3629   -2.6815 H         1 <0>         0.0562
     59 H28        -9.4039   -1.6264   -2.9335 H         1 <0>         0.0550
     60 H29        -9.1843    0.0095   -3.6423 H         1 <0>         0.0538
     61 H30         1.6623   -1.4281   -0.0215 H         1 <0>         0.1567
     62 H31         3.1700    0.8035   -0.0242 H         1 <0>         0.1557
     63 H32         1.5316    2.8477    0.0022 H         1 <0>         0.2081
     64 H33        -5.3039    2.3031    0.3193 H         1 <0>         0.0795
     65 H34        -6.0289    2.1215   -1.3142 H         1 <0>         0.0854
     66 H35        -4.4525    2.9605   -1.1193 H         1 <0>         0.0925
@<TRIPOS>BOND
     1    1    2 1
     2    1   34 1
     3    1   35 1
     4    1   36 1
     5    2    3 1
     6    2    8 1
     7    2    4 1
     8    4    5 1
     9    4   37 1
    10    4   38 1
    11    5    6 1
    12    5   39 1
    13    5   40 1
    14    6    7 1
    15    6   41 1
    16    6   42 1
    17    7    8 1
    18    7   43 1
    19    7   44 1
    20    8    9 1
    21    8   10 1
    22   10   11 am
    23   10   45 1
    24   11   12 2
    25   11   13 1
    26   13   22 1
    27   13   14 1
    28   13   33 1
    29   14   15 1
    30   14   46 1
    31   14   47 1
    32   15   19 1
    33   15   16 1
    34   16   17 2
    35   16   28 1
    36   17   18 1
    37   17   48 1
    38   18   19 2
    39   18   49 1
    40   19   20 1
    41   20   21 2
    42   20   22 am
    43   22   23 1
    44   23   24 1
    45   23   50 1
    46   23   51 1
    47   24   25 1
    48   24   52 1
    49   24   53 1
    50   25   26 1
    51   25   27 1
    52   25   54 1
    53   26   55 1
    54   26   56 1
    55   26   57 1
    56   27   58 1
    57   27   59 1
    58   27   60 1
    59   28   32 1
    60   28   29 2
    61   29   30 1
    62   29   61 1
    63   30   31 2
    64   30   62 1
    65   31   32 1
    66   31   63 1
    67   33   64 1
    68   33   65 1
    69   33   66 1
