@<TRIPOS>MOLECULE
ZINC21223546
   60    64     0     0     0
SMALL
USER_CHARGES
(6R,9R)-9-(4-dimethylaminophenyl)-6-(3-nitrophenyl)-5,6,8,9,10,11-hexahydrobenzo[c][1,5]benzodiazepin-7-one
@<TRIPOS>ATOM
      1 C1          2.8379    8.3944   -0.8792 C.3       1 <0>         0.0848
      2 N1          2.1902    7.6764    0.2213 N.pl3     1 <0>        -0.6373
      3 C2          1.6524    8.4187    1.3642 C.3       1 <0>         0.0846
      4 C3          2.0855    6.2842    0.1811 C.ar      1 <0>         0.2177
      5 C4          2.5949    5.5788   -0.9018 C.ar      1 <0>        -0.2001
      6 C5          2.4900    4.2022   -0.9382 C.ar      1 <0>        -0.0600
      7 C6          1.8788    3.5260    0.1017 C.ar      1 <0>        -0.1440
      8 C7          1.3656    4.2256    1.1785 C.ar      1 <0>        -0.0622
      9 C8          1.4721    5.6018    1.2240 C.ar      1 <0>        -0.1989
     10 C9          1.7662    2.0239    0.0585 C.3       1 <0>        -0.0274
     11 H1          2.2421    1.6809   -0.8720 H         1 <0>         0.0880
     12 C10         0.2951    1.6135    0.0988 C.3       1 <0>        -0.1031
     13 C11         0.1810    0.0981    0.0660 C.2       1 <0>         0.2830
     14 C12         1.1187   -0.6663    0.6494 C.2       1 <0>        -0.3213
     15 C13         1.1186   -2.1763    0.7124 C.3       1 <0>         0.2900
     16 H2          2.0847   -2.5316    0.3245 H         1 <0>         0.1005
     17 N2          0.1407   -2.8109   -0.1459 N.pl3     1 <0>        -0.7825
     18 C14        -1.2258   -2.6345    0.0654 C.ar      1 <0>         0.1595
     19 C15        -2.0324   -3.6791    0.4873 C.ar      1 <0>        -0.1322
     20 C16        -3.3606   -3.4333    0.7893 C.ar      1 <0>        -0.1062
     21 C17        -3.8811   -2.1574    0.6705 C.ar      1 <0>        -0.1071
     22 C18        -3.0829   -1.1159    0.2289 C.ar      1 <0>        -0.1097
     23 C19        -1.7589   -1.3637   -0.0895 C.ar      1 <0>         0.1105
     24 N3         -0.9149   -0.3741   -0.5803 N.pl3     1 <0>        -0.6956
     25 C20         0.8472   -2.5922    2.1353 C.ar      1 <0>        -0.0797
     26 C21         1.8193   -3.2585    2.8581 C.ar      1 <0>        -0.0385
     27 C22         1.5704   -3.6400    4.1630 C.ar      1 <0>        -0.1208
     28 C23         0.3494   -3.3549    4.7456 C.ar      1 <0>        -0.0598
     29 C24        -0.6219   -2.6875    4.0235 C.ar      1 <0>        -0.0490
     30 C25        -0.3715   -2.3025    2.7194 C.ar      1 <0>        -0.0432
     31 N4         -1.9289   -2.3819    4.6474 N.pl3     1 <0>         0.0306
     32 O1         -2.1484   -2.7185    5.7972 O.2       1 <0>        -0.1680
     33 O2         -2.7849   -1.7938    4.0110 O.3       1 <0>        -0.1558
     34 C26         2.2414   -0.0682    1.2691 C.2       1 <0>         0.4026
     35 O3          3.0634   -0.7837    1.8073 O.2       1 <0>        -0.4810
     36 C27         2.4539    1.4157    1.2865 C.3       1 <0>        -0.1600
     37 H3          3.1749    7.6739   -1.6390 H         1 <0>         0.0799
     38 H4          3.7038    8.9525   -0.4935 H         1 <0>         0.0555
     39 H5          2.1213    9.0959   -1.3313 H         1 <0>         0.0555
     40 H6          1.2081    7.7142    2.0827 H         1 <0>         0.0798
     41 H7          0.8814    9.1213    1.0151 H         1 <0>         0.0556
     42 H8          2.4639    8.9779    1.8529 H         1 <0>         0.0556
     43 H9          3.0727    6.1063   -1.7141 H         1 <0>         0.1244
     44 H10         2.8862    3.6532   -1.7796 H         1 <0>         0.1212
     45 H11         0.8846    3.6948    1.9868 H         1 <0>         0.1188
     46 H12         1.0750    6.1472    2.0674 H         1 <0>         0.1241
     47 H13        -0.1661    1.9926    1.0227 H         1 <0>         0.0968
     48 H14        -0.2275    2.0361   -0.7720 H         1 <0>         0.0889
     49 H15         0.4715   -3.4450   -0.9817 H         1 <0>         0.4191
     50 H16        -1.6284   -4.6764    0.5794 H         1 <0>         0.1221
     51 H17        -3.9945   -4.2428    1.1201 H         1 <0>         0.1227
     52 H18        -4.9148   -1.9728    0.9231 H         1 <0>         0.1283
     53 H19        -3.4895   -0.1199    0.1335 H         1 <0>         0.1279
     54 H20        -1.1887    0.0299   -1.5661 H         1 <0>         0.4292
     55 H21         2.7731   -3.4812    2.4030 H         1 <0>         0.1427
     56 H22         2.3295   -4.1611    4.7274 H         1 <0>         0.1467
     57 H23         0.1548   -3.6533    5.7652 H         1 <0>         0.1506
     58 H24        -1.1292   -1.7781    2.1562 H         1 <0>         0.1490
     59 H25         3.5303    1.6399    1.2525 H         1 <0>         0.0985
     60 H26         2.0186    1.8452    2.2008 H         1 <0>         0.0991
@<TRIPOS>BOND
     1    1    2 1
     2    1   37 1
     3    1   38 1
     4    1   39 1
     5    2    3 1
     6    2    4 1
     7    3   40 1
     8    3   41 1
     9    3   42 1
    10    4    9 ar
    11    4    5 ar
    12    5    6 ar
    13    5   43 1
    14    6    7 ar
    15    6   44 1
    16    7    8 ar
    17    7   10 1
    18    8    9 ar
    19    8   45 1
    20    9   46 1
    21   10   11 1
    22   10   36 1
    23   10   12 1
    24   12   13 1
    25   12   47 1
    26   12   48 1
    27   13   24 1
    28   13   14 2
    29   14   15 1
    30   14   34 1
    31   15   16 1
    32   15   17 1
    33   15   25 1
    34   17   18 1
    35   17   49 1
    36   18   23 ar
    37   18   19 ar
    38   19   20 ar
    39   19   50 1
    40   20   21 ar
    41   20   51 1
    42   21   22 ar
    43   21   52 1
    44   22   23 ar
    45   22   53 1
    46   23   24 1
    47   24   54 1
    48   25   30 ar
    49   25   26 ar
    50   26   27 ar
    51   26   55 1
    52   27   28 ar
    53   27   56 1
    54   28   29 ar
    55   28   57 1
    56   29   30 ar
    57   29   31 1
    58   30   58 1
    59   31   32 2
    60   31   33 1
    61   34   35 2
    62   34   36 1
    63   36   59 1
    64   36   60 1
