@<TRIPOS>MOLECULE
ZINC05895023
   56    58     0     0     0
SMALL
USER_CHARGES
methyl 4-[8-(diethylaminomethyl)-4-hydroxy-2-methyl-7-oxo-chromen-3-yl]oxybenzoate
@<TRIPOS>ATOM
      1 C1         -2.1302   10.2529   -0.5195 C.3       1 <0>        -0.1723
      2 C2         -3.0532    9.0863   -0.8772 C.3       1 <0>        -0.0033
      3 C3         -2.2139    9.1401   -3.1477 C.3       1 <0>        -0.0135
      4 C4         -3.5530    9.5161   -3.7851 C.3       1 <0>        -0.1858
      5 C5         -1.2126    7.6513   -1.5218 C.3       1 <0>         0.0700
      6 C6         -1.5344    6.6195   -0.4716 C.2       1 <0>        -0.3124
      7 C7         -1.5535    6.9756    0.8793 C.2       1 <0>         0.3627
      8 O1         -1.2855    8.2321    1.2378 O.2       1 <0>        -0.5431
      9 C8         -1.8545    6.0155    1.8642 C.2       1 <0>        -0.1718
     10 C9         -2.1291    4.7333    1.5115 C.2       1 <0>        -0.0280
     11 C10        -2.1132    4.3601    0.1561 C.2       1 <0>        -0.2086
     12 C11        -2.4005    3.0347   -0.2365 C.2       1 <0>         0.3023
     13 C12        -2.3636    2.7260   -1.6082 C.2       1 <0>        -0.0617
     14 C13        -2.0676    3.6945   -2.5122 C.2       1 <0>         0.1888
     15 O2         -1.8002    4.9511   -2.1383 O.3       1 <0>        -0.1833
     16 C14        -1.8126    5.3166   -0.8407 C.2       1 <0>         0.2290
     17 C15        -2.0388    3.3445   -3.9777 C.3       1 <0>        -0.1263
     18 O3         -2.6298    1.4596   -2.0289 O.3       1 <0>        -0.2137
     19 C16        -1.5915    0.5932   -2.1382 C.ar      1 <0>         0.1289
     20 C17        -0.3025    1.0133   -1.8290 C.ar      1 <0>        -0.2197
     21 C18         0.7546    0.1391   -1.9440 C.ar      1 <0>        -0.0170
     22 C19         0.5307   -1.1730   -2.3719 C.ar      1 <0>        -0.1435
     23 C20        -0.7668   -1.5914   -2.6817 C.ar      1 <0>        -0.0086
     24 C21        -1.8184   -0.7107   -2.5645 C.ar      1 <0>        -0.1388
     25 C22         1.6600   -2.1131   -2.4955 C.2       1 <0>         0.5054
     26 O4          1.4635   -3.2531   -2.8672 O.2       1 <0>        -0.4952
     27 O5          2.9098   -1.7079   -2.1965 O.3       1 <0>        -0.3571
     28 C23         3.9725   -2.6867   -2.3412 C.3       1 <0>         0.0358
     29 O6         -2.6976    2.0883    0.6800 O.3       1 <0>        -0.4545
     30 H1         -2.0839   10.9495   -1.3566 H         1 <0>         0.0680
     31 H2         -2.5184   10.7669    0.3598 H         1 <0>         0.0994
     32 H3         -1.1307    9.8735   -0.3069 H         1 <0>         0.0923
     33 H4         -4.0199    9.4734   -1.1992 H         1 <0>         0.1182
     34 H5         -3.1896    8.4497   -0.0030 H         1 <0>         0.1255
     35 H6         -1.6857   10.0461   -2.8507 H         1 <0>         0.1349
     36 H7         -1.6108    8.5877   -3.8683 H         1 <0>         0.1249
     37 H8         -4.1249    8.6110   -3.9897 H         1 <0>         0.0756
     38 H9         -4.1141   10.1538   -3.1020 H         1 <0>         0.0804
     39 H10        -3.3740   10.0514   -4.7176 H         1 <0>         0.1045
     40 H11        -0.5394    8.3990   -1.1023 H         1 <0>         0.1483
     41 H12        -0.7328    7.1668   -2.3722 H         1 <0>         0.1256
     42 H13        -1.8675    6.3005    2.9058 H         1 <0>         0.1538
     43 H14        -2.3590    4.0010    2.2713 H         1 <0>         0.1549
     44 H15        -3.0296    3.4945   -4.4066 H         1 <0>         0.1249
     45 H16        -1.3204    3.9844   -4.4901 H         1 <0>         0.1085
     46 H17        -1.7457    2.3014   -4.0965 H         1 <0>         0.1169
     47 H18        -0.1305    2.0269   -1.4982 H         1 <0>         0.1261
     48 H19         1.7554    0.4661   -1.7037 H         1 <0>         0.1486
     49 H20        -0.9439   -2.6042   -3.0122 H         1 <0>         0.1561
     50 H21        -2.8210   -1.0331   -2.8036 H         1 <0>         0.1521
     51 H22         4.0146   -3.0269   -3.3759 H         1 <0>         0.0678
     52 H23         4.9250   -2.2319   -2.0692 H         1 <0>         0.1073
     53 H24         3.7756   -3.5362   -1.6872 H         1 <0>         0.0679
     54 H25        -1.9271    1.6101    1.0156 H         1 <0>         0.4298
     55 N1         -2.4713    8.2819   -1.9722 N.4       1 <0>        -0.3931
     56 H26        -3.1372    7.5462   -2.2358 H         1 <0>         0.4164
@<TRIPOS>BOND
     1    1    2 1
     2    1   30 1
     3    1   31 1
     4    1   32 1
     5    2   33 1
     6    2   34 1
     7    2   55 1
     8    3    4 1
     9    3   35 1
    10    3   36 1
    11    3   55 1
    12    4   37 1
    13    4   38 1
    14    4   39 1
    15    5    6 1
    16    5   40 1
    17    5   41 1
    18    5   55 1
    19    6   16 2
    20    6    7 1
    21    7    8 2
    22    7    9 1
    23    9   10 2
    24    9   42 1
    25   10   11 1
    26   10   43 1
    27   11   16 1
    28   11   12 2
    29   12   13 1
    30   12   29 1
    31   13   14 2
    32   13   18 1
    33   14   15 1
    34   14   17 1
    35   15   16 1
    36   17   44 1
    37   17   45 1
    38   17   46 1
    39   18   19 1
    40   19   24 ar
    41   19   20 ar
    42   20   21 ar
    43   20   47 1
    44   21   22 ar
    45   21   48 1
    46   22   23 ar
    47   22   25 1
    48   23   24 ar
    49   23   49 1
    50   24   50 1
    51   25   26 2
    52   25   27 1
    53   27   28 1
    54   28   51 1
    55   28   52 1
    56   28   53 1
    57   29   54 1
    58   55   56 1
