@<TRIPOS>MOLECULE
ZINC67571579
   60    62     0     0     0
SMALL
USER_CHARGES

@<TRIPOS>ATOM
      1 C1          0.8923    1.4905    0.5461 C.3       1 <0>        -0.1182
      2 C2          2.3309    1.9566    0.3111 C.3       1 <0>        -0.1395
      3 C3          2.7466    1.6139   -1.1230 C.3       1 <0>         0.1070
      4 N1          2.5335    0.1775   -1.3467 N.am      1 <0>        -0.6052
      5 C4          1.2092   -0.3927   -1.0642 C.3       1 <0>         0.1278
      6 H1          0.4787    0.0167   -1.7620 H         1 <0>         0.0859
      7 C5          0.8108   -0.0275    0.3692 C.3       1 <0>        -0.1235
      8 C6          1.2628   -1.8916   -1.2104 C.2       1 <0>         0.5362
      9 O1          1.9236   -2.5530   -0.4379 O.2       1 <0>        -0.5222
     10 N2          0.5764   -2.4971   -2.1997 N.am      1 <0>        -0.8556
     11 C7          3.5337   -0.6022   -1.8028 C.2       1 <0>         0.5114
     12 O2          3.3662   -1.7979   -1.9182 O.2       1 <0>        -0.4945
     13 C8          4.8603    0.0115   -2.1695 C.3       1 <0>        -0.1000
     14 H2          5.1950    0.6626   -1.3619 H         1 <0>         0.0949
     15 C9          4.7064    0.8294   -3.4533 C.3       1 <0>        -0.1139
     16 C10         6.0533    1.4526   -3.8256 C.3       1 <0>        -0.1137
     17 C11         7.0842    0.3440   -4.0475 C.3       1 <0>        -0.1227
     18 C12         7.2381   -0.4738   -2.7637 C.3       1 <0>        -0.0990
     19 H3          7.5728    0.1772   -1.9561 H         1 <0>         0.0958
     20 C13         5.8912   -1.0970   -2.3914 C.3       1 <0>        -0.0774
     21 C14         8.2535   -1.5657   -2.9823 C.2       1 <0>         0.5141
     22 O3          7.9230   -2.7288   -2.8881 O.2       1 <0>        -0.4968
     23 N3          9.5288   -1.2497   -3.2824 N.am      1 <0>        -0.6057
     24 C15         9.9743    0.1504   -3.2767 C.3       1 <0>         0.1004
     25 C16        10.6270    0.4656   -4.6263 C.3       1 <0>        -0.1397
     26 C17        11.7413   -0.5474   -4.8986 C.3       1 <0>        -0.1180
     27 C18        11.1470   -1.9560   -4.9668 C.3       1 <0>        -0.1227
     28 C19        10.5016   -2.2992   -3.6156 C.3       1 <0>         0.1278
     29 H4         11.2685   -2.3453   -2.8424 H         1 <0>         0.0860
     30 C20         9.7976   -3.6281   -3.7127 C.2       1 <0>         0.5370
     31 O4          8.9335   -3.7970   -4.5468 O.2       1 <0>        -0.5258
     32 N4         10.1283   -4.6289   -2.8727 N.am      1 <0>        -0.8540
     33 H5          0.5856    1.7551    1.5581 H         1 <0>         0.0727
     34 H6          0.2314    1.9758   -0.1720 H         1 <0>         0.0670
     35 H7          2.3930    3.0345    0.4601 H         1 <0>         0.0800
     36 H8          2.9958    1.4529    1.0128 H         1 <0>         0.0703
     37 H9          2.1415    2.1868   -1.8256 H         1 <0>         0.0732
     38 H10         3.8004    1.8535   -1.2651 H         1 <0>         0.0922
     39 H11         1.4899   -0.5125    1.0704 H         1 <0>         0.0811
     40 H12        -0.2091   -0.3617    0.5597 H         1 <0>         0.0780
     41 H13         0.0479   -1.9681   -2.8176 H         1 <0>         0.3946
     42 H14         0.6110   -3.4619   -2.2939 H         1 <0>         0.4030
     43 H15         4.3717    0.1784   -4.2609 H         1 <0>         0.0710
     44 H16         3.9720    1.6192   -3.2952 H         1 <0>         0.0717
     45 H17         5.9437    2.0352   -4.7402 H         1 <0>         0.0738
     46 H18         6.3880    2.1036   -3.0180 H         1 <0>         0.0680
     47 H19         6.7495   -0.3070   -4.8551 H         1 <0>         0.0724
     48 H20         8.0437    0.7880   -4.3127 H         1 <0>         0.0791
     49 H21         6.0009   -1.6797   -1.4768 H         1 <0>         0.0744
     50 H22         5.5565   -1.7480   -3.1990 H         1 <0>         0.0820
     51 H23         9.1171    0.8060   -3.1234 H         1 <0>         0.0985
     52 H24        10.6991    0.3000   -2.4765 H         1 <0>         0.0722
     53 H25         9.8781    0.4037   -5.4159 H         1 <0>         0.0717
     54 H26        11.0474    1.4710   -4.6011 H         1 <0>         0.0800
     55 H27        12.2237   -0.3105   -5.8469 H         1 <0>         0.0728
     56 H28        12.4772   -0.5022   -4.0958 H         1 <0>         0.0670
     57 H29        10.3932   -1.9952   -5.7532 H         1 <0>         0.0806
     58 H30        11.9375   -2.6744   -5.1839 H         1 <0>         0.0779
     59 H31        10.8193   -4.4937   -2.2056 H         1 <0>         0.3953
     60 H32         9.6751   -5.4842   -2.9353 H         1 <0>         0.4032
@<TRIPOS>BOND
     1    1    7 1
     2    1    2 1
     3    1   33 1
     4    1   34 1
     5    2    3 1
     6    2   35 1
     7    2   36 1
     8    3    4 1
     9    3   37 1
    10    3   38 1
    11    4    5 1
    12    4   11 am
    13    5    6 1
    14    5    7 1
    15    5    8 1
    16    7   39 1
    17    7   40 1
    18    8    9 2
    19    8   10 am
    20   10   41 1
    21   10   42 1
    22   11   12 2
    23   11   13 1
    24   13   14 1
    25   13   20 1
    26   13   15 1
    27   15   16 1
    28   15   43 1
    29   15   44 1
    30   16   17 1
    31   16   45 1
    32   16   46 1
    33   17   18 1
    34   17   47 1
    35   17   48 1
    36   18   19 1
    37   18   20 1
    38   18   21 1
    39   20   49 1
    40   20   50 1
    41   21   22 2
    42   21   23 am
    43   23   28 1
    44   23   24 1
    45   24   25 1
    46   24   51 1
    47   24   52 1
    48   25   26 1
    49   25   53 1
    50   25   54 1
    51   26   27 1
    52   26   55 1
    53   26   56 1
    54   27   28 1
    55   27   57 1
    56   27   58 1
    57   28   29 1
    58   28   30 1
    59   30   31 2
    60   30   32 am
    61   32   59 1
    62   32   60 1
