@<TRIPOS>MOLECULE
ZINC35744552
   56    58     0     0     0
SMALL
USER_CHARGES

@<TRIPOS>ATOM
      1 C1         -0.5381    1.7396    1.7335 C.3       1 <0>        -0.1336
      2 C2         -0.3976    0.2607    1.4802 C.ar      1 <0>        -0.0296
      3 C3         -0.1447   -0.1983    0.2001 C.ar      1 <0>        -0.1102
      4 C4         -0.0150   -1.5515   -0.0377 C.ar      1 <0>        -0.0605
      5 C5         -0.1393   -2.4568    1.0143 C.ar      1 <0>        -0.0587
      6 C6         -0.3939   -1.9903    2.3018 C.ar      1 <0>        -0.0477
      7 C7         -0.5164   -0.6332    2.5302 C.ar      1 <0>        -0.0486
      8 Cl1        -0.8268   -0.0489    4.1352 Cl        1 <0>        -0.0424
      9 C8         -0.0011   -3.9132    0.7637 C.2       1 <0>         0.3152
     10 N1         -0.1050   -4.8821    1.6908 N.2       1 <0>        -0.4780
     11 C9          0.0682   -6.0487    1.1380 C.2       1 <0>         0.2310
     12 O1          0.2905   -5.8698   -0.1705 O.3       1 <0>        -0.1005
     13 N2          0.2366   -4.4695   -0.3984 N.2       1 <0>        -0.2889
     14 C10         0.0259   -7.3759    1.8506 C.3       1 <0>         0.1332
     15 H1          0.0944   -7.2131    2.9262 H         1 <0>         0.1870
     16 C11        -1.2887   -8.0879    1.5253 C.3       1 <0>        -0.1135
     17 C12        -1.3613   -9.4045    2.3013 C.3       1 <0>        -0.1707
     18 C13        -2.4649   -7.1948    1.9250 C.3       1 <0>        -0.1533
     19 N3          1.1546   -8.2055    1.4081 N.4       1 <0>        -0.5027
     20 C14         2.4158   -7.5819    1.8305 C.3       1 <0>        -0.0500
     21 C15         3.5852   -8.4988    1.4662 C.3       1 <0>         0.0900
     22 H2          3.6011   -8.6564    0.3878 H         1 <0>         0.1396
     23 C16         4.8988   -7.8493    1.9061 C.3       1 <0>         0.0305
     24 O2          5.9973   -8.6489    1.4632 O.3       1 <0>        -0.3012
     25 C17         7.2451   -8.2093    1.7739 C.ar      1 <0>         0.1162
     26 C18         7.4088   -7.0356    2.4953 C.ar      1 <0>        -0.2095
     27 C19         8.6783   -6.5912    2.8103 C.ar      1 <0>        -0.0798
     28 C20         9.7853   -7.3148    2.4069 C.ar      1 <0>        -0.1470
     29 C21         9.6248   -8.4846    1.6875 C.ar      1 <0>        -0.0764
     30 C22         8.3573   -8.9365    1.3753 C.ar      1 <0>        -0.1438
     31 O3          3.4297   -9.7552    2.1290 O.3       1 <0>        -0.5404
     32 H3          0.4391    2.1629    1.9658 H         1 <0>         0.0884
     33 H4         -0.9418    2.2238    0.8443 H         1 <0>         0.0817
     34 H5         -1.2134    1.9017    2.5737 H         1 <0>         0.0822
     35 H6         -0.0488    0.5037   -0.6150 H         1 <0>         0.1491
     36 H7          0.1821   -1.9083   -1.0378 H         1 <0>         0.1407
     37 H8         -0.4915   -2.6878    3.1206 H         1 <0>         0.1492
     38 H9         -1.3356   -8.2934    0.4559 H         1 <0>         0.1086
     39 H10        -1.2077   -9.2096    3.3627 H         1 <0>         0.0797
     40 H11        -2.3405   -9.8598    2.1535 H         1 <0>         0.0976
     41 H12        -0.5874  -10.0820    1.9406 H         1 <0>         0.0624
     42 H13        -2.4132   -6.2568    1.3722 H         1 <0>         0.0605
     43 H14        -3.4014   -7.7020    1.6932 H         1 <0>         0.0895
     44 H15        -2.4180   -6.9892    2.9944 H         1 <0>         0.0785
     45 H16         1.0790   -9.1236    1.8198 H         1 <0>         0.4467
     46 H17         2.5345   -6.6235    1.3249 H         1 <0>         0.1405
     47 H18         2.4000   -7.4242    2.9089 H         1 <0>         0.1498
     48 H19         4.9754   -6.8532    1.4702 H         1 <0>         0.0807
     49 H20         4.9201   -7.7728    2.9932 H         1 <0>         0.0785
     50 H21         6.5445   -6.4697    2.8100 H         1 <0>         0.1228
     51 H22         8.8062   -5.6776    3.3719 H         1 <0>         0.1285
     52 H23        10.7769   -6.9655    2.6538 H         1 <0>         0.1298
     53 H24        10.4911   -9.0478    1.3732 H         1 <0>         0.1355
     54 H25         8.2323   -9.8526    0.8171 H         1 <0>         0.1336
     55 H26         3.4072   -9.6909    3.0936 H         1 <0>         0.3912
     56 H27         1.1392   -8.2855    0.4024 H         1 <0>         0.4380
@<TRIPOS>BOND
     1    1    2 1
     2    1   32 1
     3    1   33 1
     4    1   34 1
     5    2    7 ar
     6    2    3 ar
     7    3    4 ar
     8    3   35 1
     9    4    5 ar
    10    4   36 1
    11    5    6 ar
    12    5    9 1
    13    6    7 ar
    14    6   37 1
    15    7    8 1
    16    9   13 2
    17    9   10 1
    18   10   11 2
    19   11   12 1
    20   11   14 1
    21   12   13 1
    22   14   15 1
    23   14   16 1
    24   14   19 1
    25   16   17 1
    26   16   18 1
    27   16   38 1
    28   17   39 1
    29   17   40 1
    30   17   41 1
    31   18   42 1
    32   18   43 1
    33   18   44 1
    34   19   20 1
    35   19   45 1
    36   19   56 1
    37   20   21 1
    38   20   46 1
    39   20   47 1
    40   21   22 1
    41   21   23 1
    42   21   31 1
    43   23   24 1
    44   23   48 1
    45   23   49 1
    46   24   25 1
    47   25   30 ar
    48   25   26 ar
    49   26   27 ar
    50   26   50 1
    51   27   28 ar
    52   27   51 1
    53   28   29 ar
    54   28   52 1
    55   29   30 ar
    56   29   53 1
    57   30   54 1
    58   31   55 1
