@<TRIPOS>MOLECULE
ZINC41451711
   41    42     0     0     0
SMALL
USER_CHARGES

@<TRIPOS>ATOM
      1 C1         -0.0178    1.4648    0.0101 C.3       1 <0>        -0.0588
      2 N1          0.0021   -0.0041    0.0020 N.4       1 <0>        -0.3853
      3 C2          0.7126   -0.4907    1.1921 C.3       1 <0>        -0.0470
      4 C3         -1.3761   -0.5125    0.0124 C.3       1 <0>        -0.0190
      5 C4         -2.0780   -0.1101   -1.2861 C.3       1 <0>         0.0895
      6 N2         -3.4524   -0.6172   -1.2757 N.pl3     1 <0>        -1.1168
      7 S1         -4.5587   -0.0330   -2.3607 S.o2      1 <0>         2.6979
      8 O1         -5.7728   -0.7306   -2.1182 O.2       1 <0>        -0.9383
      9 O2         -4.4707    1.3842   -2.3073 O.2       1 <0>        -0.9461
     10 C5         -4.0155   -0.5112   -3.9672 C.ar      1 <0>        -0.7133
     11 C6         -3.1717    0.3165   -4.6849 C.ar      1 <0>         0.0074
     12 C7         -2.7440   -0.0554   -5.9444 C.ar      1 <0>        -0.1775
     13 C8         -3.1620   -1.2622   -6.4897 C.ar      1 <0>         0.2530
     14 C9         -4.0090   -2.0914   -5.7663 C.ar      1 <0>        -0.1761
     15 C10        -4.4292   -1.7159   -4.5053 C.ar      1 <0>         0.0168
     16 N3         -2.7309   -1.6418   -7.7659 N.am      1 <0>        -0.5793
     17 C11        -3.0948   -2.8852   -8.4736 C.3       1 <0>         0.0532
     18 C12        -2.6571   -2.5758   -9.9249 C.3       1 <0>         0.0383
     19 O3         -1.6460   -1.5687   -9.7253 O.3       1 <0>        -0.3112
     20 C13        -1.9146   -0.9357   -8.5707 C.2       1 <0>         0.6474
     21 O4         -1.4663    0.1564   -8.2825 O.2       1 <0>        -0.4862
     22 H1          1.0047    1.8421    0.0024 H         1 <0>         0.1294
     23 H2         -0.5450    1.8259   -0.8730 H         1 <0>         0.1271
     24 H3         -0.5280    1.8163    0.9069 H         1 <0>         0.1270
     25 H4          0.2024   -0.1392    2.0889 H         1 <0>         0.1243
     26 H5          0.7273   -1.5806    1.1861 H         1 <0>         0.1248
     27 H6          1.7352   -0.1134    1.1844 H         1 <0>         0.1279
     28 H7         -1.3618   -1.5992    0.0961 H         1 <0>         0.1403
     29 H8         -1.9129   -0.0898    0.8617 H         1 <0>         0.1415
     30 H9         -2.0923    0.9766   -1.3697 H         1 <0>         0.1035
     31 H10        -1.5412   -0.5328   -2.1354 H         1 <0>         0.0893
     32 H11        -3.7144   -1.2951   -0.6333 H         1 <0>         0.4263
     33 H12        -2.8470    1.2549   -4.2602 H         1 <0>         0.1453
     34 H13        -2.0856    0.5918   -6.5048 H         1 <0>         0.1660
     35 H14        -4.3361   -3.0304   -6.1878 H         1 <0>         0.1416
     36 H15        -5.0850   -2.3621   -3.9406 H         1 <0>         0.1496
     37 H16        -2.5415   -3.7352   -8.0742 H         1 <0>         0.1057
     38 H17        -4.1692   -3.0611   -8.4215 H         1 <0>         0.1139
     39 H18        -2.2359   -3.4610  -10.4015 H         1 <0>         0.1341
     40 H19        -3.4899   -2.1812  -10.5069 H         1 <0>         0.1045
     41 H20         0.4743   -0.3295   -0.8281 H         1 <0>         0.4292
@<TRIPOS>BOND
     1    1    2 1
     2    1   22 1
     3    1   23 1
     4    1   24 1
     5    2    3 1
     6    2    4 1
     7    2   41 1
     8    3   25 1
     9    3   26 1
    10    3   27 1
    11    4    5 1
    12    4   28 1
    13    4   29 1
    14    5    6 1
    15    5   30 1
    16    5   31 1
    17    6    7 1
    18    6   32 1
    19    7    8 2
    20    7    9 2
    21    7   10 1
    22   10   15 ar
    23   10   11 ar
    24   11   12 ar
    25   11   33 1
    26   12   13 ar
    27   12   34 1
    28   13   14 ar
    29   13   16 1
    30   14   15 ar
    31   14   35 1
    32   15   36 1
    33   16   20 am
    34   16   17 1
    35   17   18 1
    36   17   37 1
    37   17   38 1
    38   18   19 1
    39   18   39 1
    40   18   40 1
    41   19   20 1
    42   20   21 2
