@<TRIPOS>MOLECULE
ZINC01897991
   58    61     0     0     0
SMALL
USER_CHARGES

@<TRIPOS>ATOM
      1 C1         -0.0187    1.5258    0.0104 C.3       1 <0>        -0.1546
      2 C2          0.0021   -0.0041    0.0020 C.3       1 <0>        -0.1259
      3 C3          0.7421   -0.5109    1.2415 C.3       1 <0>        -0.1216
      4 C4          0.7628   -2.0407    1.2331 C.3       1 <0>        -0.1191
      5 C5          1.5028   -2.5476    2.4727 C.3       1 <0>        -0.1180
      6 C6          1.5236   -4.0774    2.4642 C.3       1 <0>        -0.1184
      7 C7          2.2636   -4.5842    3.7038 C.3       1 <0>         0.0619
      8 O1          2.2829   -6.0131    3.6959 O.3       1 <0>        -0.3457
      9 C8          2.9023   -6.6231    4.7281 C.2       1 <0>         0.5642
     10 O2          3.4120   -5.9581    5.6108 O.2       1 <0>        -0.4889
     11 C9          2.9591   -8.0370    4.7841 C.2       1 <0>        -0.2944
     12 C10         4.0135   -8.8994    4.2246 C.ar      1 <0>         0.1856
     13 C11         3.6074  -10.2698    4.5481 C.ar      1 <0>         0.2875
     14 N1          4.3662  -11.2759    4.1694 N.ar      1 <0>        -0.4303
     15 C12         5.4984  -11.0403    3.4943 C.ar      1 <0>         0.0980
     16 C13         6.3158  -12.1103    3.0852 C.ar      1 <0>        -0.0835
     17 C14         7.4640  -11.8615    2.3994 C.ar      1 <0>        -0.0975
     18 C15         7.8481  -10.5571    2.0933 C.ar      1 <0>        -0.0964
     19 C16         7.0846   -9.4970    2.4722 C.ar      1 <0>        -0.0824
     20 C17         5.8890   -9.7142    3.1823 C.ar      1 <0>         0.0957
     21 N2          5.1301   -8.6785    3.5606 N.ar      1 <0>        -0.4129
     22 N3          2.4134  -10.1846    5.2383 N.pl3     1 <0>        -0.4444
     23 C18         2.0326   -8.8846    5.3842 C.2       1 <0>         0.4928
     24 N4          0.8960   -8.4704    6.0275 N.pl3     1 <0>        -0.8216
     25 C19         1.6952  -11.2848    5.7264 C.ar      1 <0>         0.1168
     26 C20         1.1498  -12.2068    4.8429 C.ar      1 <0>        -0.0303
     27 C21         0.4430  -13.2901    5.3263 C.ar      1 <0>        -0.0929
     28 C22         0.2779  -13.4573    6.6903 C.ar      1 <0>         0.0250
     29 C23         0.8200  -12.5397    7.5727 C.ar      1 <0>        -0.0332
     30 C24         1.5327  -11.4575    7.0942 C.ar      1 <0>        -0.0430
     31 N5          0.6407  -12.7209    9.0308 N.pl3     1 <0>         0.0294
     32 O3          1.1141  -11.9194    9.8022 O.2       1 <0>        -0.1498
     33 O4          0.0209  -13.6704    9.4502 O.3       1 <0>        -0.1203
     34 Cl1        -0.6111  -14.8203    7.2950 Cl        1 <0>         0.0143
     35 H1          1.0039    1.9031    0.0027 H         1 <0>         0.0537
     36 H2         -0.5459    1.8868   -0.8726 H         1 <0>         0.0536
     37 H3         -0.5289    1.8773    0.9072 H         1 <0>         0.0534
     38 H4         -1.0205   -0.3814    0.0098 H         1 <0>         0.0604
     39 H5          0.5123   -0.3556   -0.8948 H         1 <0>         0.0608
     40 H6          1.7647   -0.1336    1.2338 H         1 <0>         0.0621
     41 H7          0.2319   -0.1594    2.1383 H         1 <0>         0.0616
     42 H8         -0.2598   -2.4180    1.2409 H         1 <0>         0.0629
     43 H9          1.2730   -2.3923    0.3363 H         1 <0>         0.0636
     44 H10         2.5254   -2.1703    2.4649 H         1 <0>         0.0666
     45 H11         0.9926   -2.1961    3.3695 H         1 <0>         0.0658
     46 H12         0.5010   -4.4547    2.4720 H         1 <0>         0.0730
     47 H13         2.0337   -4.4289    1.5675 H         1 <0>         0.0748
     48 H14         3.2861   -4.2070    3.6960 H         1 <0>         0.0699
     49 H15         1.7534   -4.2327    4.6006 H         1 <0>         0.0679
     50 H16         6.0322  -13.1266    3.3154 H         1 <0>         0.1392
     51 H17         8.0873  -12.6868    2.0880 H         1 <0>         0.1378
     52 H18         8.7646  -10.3857    1.5482 H         1 <0>         0.1382
     53 H19         7.3949   -8.4916    2.2287 H         1 <0>         0.1420
     54 H20         0.6904   -7.5244    6.0880 H         1 <0>         0.4322
     55 H21         0.2971   -9.1232    6.4225 H         1 <0>         0.4114
     56 H22         1.2781  -12.0766    3.7785 H         1 <0>         0.1613
     57 H23         0.0184  -14.0074    4.6395 H         1 <0>         0.1721
     58 H24         1.9597  -10.7441    7.7835 H         1 <0>         0.1700
@<TRIPOS>BOND
     1    1    2 1
     2    1   35 1
     3    1   36 1
     4    1   37 1
     5    2    3 1
     6    2   38 1
     7    2   39 1
     8    3    4 1
     9    3   40 1
    10    3   41 1
    11    4    5 1
    12    4   42 1
    13    4   43 1
    14    5    6 1
    15    5   44 1
    16    5   45 1
    17    6    7 1
    18    6   46 1
    19    6   47 1
    20    7    8 1
    21    7   48 1
    22    7   49 1
    23    8    9 1
    24    9   10 2
    25    9   11 1
    26   11   23 2
    27   11   12 1
    28   12   21 ar
    29   12   13 ar
    30   13   14 ar
    31   13   22 1
    32   14   15 ar
    33   15   20 ar
    34   15   16 ar
    35   16   17 ar
    36   16   50 1
    37   17   18 ar
    38   17   51 1
    39   18   19 ar
    40   18   52 1
    41   19   20 ar
    42   19   53 1
    43   20   21 ar
    44   22   23 1
    45   22   25 1
    46   23   24 1
    47   24   54 1
    48   24   55 1
    49   25   30 ar
    50   25   26 ar
    51   26   27 ar
    52   26   56 1
    53   27   28 ar
    54   27   57 1
    55   28   29 ar
    56   28   34 1
    57   29   30 ar
    58   29   31 1
    59   30   58 1
    60   31   32 2
    61   31   33 1
