@<TRIPOS>MOLECULE
ZINC05490066
   42    45     0     0     0
SMALL
USER_CHARGES

@<TRIPOS>ATOM
      1 C1         -0.0431    1.9162    0.1927 C.3       1 <0>        -0.1427
      2 S1         -0.1042    0.1033    0.2041 S.3       1 <0>        -0.1238
      3 C2          0.8136   -0.3451    1.6398 C.ar      1 <0>        -0.0805
      4 C3          1.3695    0.6402    2.4471 C.ar      1 <0>        -0.1297
      5 C4          2.0881    0.2850    3.5714 C.ar      1 <0>        -0.0867
      6 C5          2.2551   -1.0493    3.8946 C.ar      1 <0>        -0.0751
      7 C6          1.7037   -2.0326    3.0933 C.ar      1 <0>        -0.0791
      8 C7          0.9786   -1.6847    1.9709 C.ar      1 <0>        -0.0979
      9 C8          3.0401   -1.4328    5.1225 C.3       1 <0>         0.1220
     10 H1          3.4349   -0.5367    5.6012 H         1 <0>         0.0964
     11 C9          4.1754   -2.3449    4.7358 C.2       1 <0>        -0.2447
     12 C10         5.3613   -2.0434    4.0593 C.2       1 <0>         0.1551
     13 N1          6.0563   -3.1589    3.9415 N.2       1 <0>        -0.2296
     14 N2          5.3286   -4.1985    4.5411 N.pl3     1 <0>        -0.4428
     15 H2          5.6032   -5.1270    4.5994 H         1 <0>         0.4493
     16 C11         4.1800   -3.6793    5.0224 C.2       1 <0>         0.2751
     17 O1          3.1639   -4.2902    5.6814 O.3       1 <0>        -0.2288
     18 C12         2.2576   -3.5047    6.2979 C.2       1 <0>         0.4396
     19 C13         2.1472   -2.1735    6.0866 C.2       1 <0>        -0.2574
     20 C14         1.1481   -1.4402    6.8040 C.1       1 <0>         0.2705
     21 N3          0.3555   -0.8585    7.3731 N.1       1 <0>        -0.4360
     22 N4          1.3962   -4.0905    7.1920 N.pl3     1 <0>        -0.8300
     23 C15         5.7667   -0.7053    3.5618 C.ar      1 <0>        -0.0088
     24 C16         5.6783    0.4072    4.3959 C.ar      1 <0>        -0.0823
     25 C17         6.0571    1.6492    3.9284 C.ar      1 <0>        -0.1147
     26 C18         6.5241    1.7915    2.6339 C.ar      1 <0>        -0.0951
     27 C19         6.6139    0.6916    1.8008 C.ar      1 <0>        -0.1116
     28 C20         6.2430   -0.5576    2.2598 C.ar      1 <0>        -0.0081
     29 Cl1         6.3628   -1.9392    1.2155 Cl        1 <0>        -0.0521
     30 H3          0.9947    2.2445    0.1358 H         1 <0>         0.0842
     31 H4         -0.5912    2.2928   -0.6709 H         1 <0>         0.1090
     32 H5         -0.4963    2.3007    1.1065 H         1 <0>         0.0836
     33 H6          1.2398    1.6823    2.1951 H         1 <0>         0.1223
     34 H7          2.5207    1.0502    4.1990 H         1 <0>         0.1243
     35 H8          1.8364   -3.0735    3.3486 H         1 <0>         0.1175
     36 H9          0.5439   -2.4529    1.3485 H         1 <0>         0.1254
     37 H10         1.4506   -5.0435    7.3646 H         1 <0>         0.4119
     38 H11         0.7333   -3.5514    7.6512 H         1 <0>         0.4284
     39 H12         5.3136    0.2979    5.4065 H         1 <0>         0.1362
     40 H13         5.9884    2.5120    4.5743 H         1 <0>         0.1347
     41 H14         6.8193    2.7656    2.2726 H         1 <0>         0.1347
     42 H15         6.9786    0.8085    0.7909 H         1 <0>         0.1371
@<TRIPOS>BOND
     1    1    2 1
     2    1   30 1
     3    1   31 1
     4    1   32 1
     5    2    3 1
     6    3    8 ar
     7    3    4 ar
     8    4    5 ar
     9    4   33 1
    10    5    6 ar
    11    5   34 1
    12    6    7 ar
    13    6    9 1
    14    7    8 ar
    15    7   35 1
    16    8   36 1
    17    9   10 1
    18    9   19 1
    19    9   11 1
    20   11   16 2
    21   11   12 1
    22   12   13 2
    23   12   23 1
    24   13   14 1
    25   14   15 1
    26   14   16 1
    27   16   17 1
    28   17   18 1
    29   18   19 2
    30   18   22 1
    31   19   20 1
    32   20   21 3
    33   22   37 1
    34   22   38 1
    35   23   28 ar
    36   23   24 ar
    37   24   25 ar
    38   24   39 1
    39   25   26 ar
    40   25   40 1
    41   26   27 ar
    42   26   41 1
    43   27   28 ar
    44   27   42 1
    45   28   29 1
