@<TRIPOS>MOLECULE
ZINC44737447
   73    78     0     0     0
SMALL
USER_CHARGES

@<TRIPOS>ATOM
      1 C1          7.8634   -4.4600    1.8116 C.3       1 <0>        -0.1184
      2 C2          6.6129   -5.2998    1.8569 C.ar      1 <0>        -0.0548
      3 C3          6.6318   -6.5919    1.3510 C.ar      1 <0>        -0.1211
      4 C4          5.5089   -7.3691    1.3828 C.ar      1 <0>        -0.0598
      5 C5          4.3268   -6.8627    1.9296 C.ar      1 <0>         0.0398
      6 C6          4.3073   -5.5547    2.4424 C.ar      1 <0>         0.0606
      7 C7          5.4596   -4.7812    2.4058 C.ar      1 <0>        -0.1166
      8 N1          3.0232   -5.3456    2.9042 N.pl3     1 <0>        -0.5900
      9 C8          2.3187   -6.4858    2.6712 C.2       1 <0>         0.2612
     10 N2          3.0804   -7.3734    2.1012 N.2       1 <0>        -0.4852
     11 C9          0.8677   -6.6911    3.0224 C.3       1 <0>         0.2271
     12 H1          0.3259   -5.7545    2.8905 H         1 <0>         0.1112
     13 C10         0.7548   -7.1447    4.4793 C.3       1 <0>        -0.1606
     14 N3          0.2933   -7.7150    2.1462 N.am      1 <0>        -0.7115
     15 C11        -1.0325   -7.7283    1.9042 C.2       1 <0>         0.5243
     16 O1         -1.7500   -6.8926    2.4118 O.2       1 <0>        -0.5193
     17 C12        -1.6234   -8.7817    1.0028 C.3       1 <0>        -0.1109
     18 H2         -0.8904   -9.1008    0.2619 H         1 <0>         0.1154
     19 C13        -2.8931   -8.2430    0.3062 C.3       1 <0>         0.1116
     20 N4         -3.8160   -9.4015    0.2619 N.am      1 <0>        -0.6100
     21 C14        -3.6234  -10.0764    1.5678 C.3       1 <0>         0.1117
     22 C15        -2.1071   -9.9844    1.8302 C.3       1 <0>        -0.0723
     23 C16        -1.4124  -11.2602    1.3638 C.3       1 <0>        -0.1353
     24 C17        -1.8671  -12.4321    2.2384 C.3       1 <0>        -0.0112
     25 N5         -1.5355  -12.1553    3.6413 N.4       1 <0>        -0.5046
     26 C18        -2.2795  -10.9798    4.1094 C.3       1 <0>        -0.0076
     27 C19        -1.8426   -9.7465    3.3138 C.3       1 <0>        -0.1496
     28 C20        -4.6436   -9.7606   -0.7394 C.2       1 <0>         0.6267
     29 O2         -5.3458  -10.7469   -0.6239 O.2       1 <0>        -0.5039
     30 C21        -4.6975   -8.9588   -1.9734 C.2       1 <0>        -0.2554
     31 C22        -3.9053   -9.1472   -3.1333 C.2       1 <0>         0.1353
     32 N6         -4.2432   -8.2453   -4.0057 N.2       1 <0>        -0.2796
     33 O3         -5.2639   -7.4353   -3.4552 O.3       1 <0>        -0.0451
     34 C23        -5.5375   -7.8821   -2.2191 C.2       1 <0>         0.1832
     35 C24        -6.5453   -7.3275   -1.2901 C.2       1 <0>         0.1472
     36 C25        -7.4051   -6.2308   -1.5476 C.2       1 <0>        -0.2663
     37 C26        -8.1706   -6.0374   -0.4594 C.2       1 <0>         0.0933
     38 O4         -7.8337   -6.9540    0.4609 O.3       1 <0>        -0.0497
     39 N7         -6.8079   -7.7662   -0.0809 N.2       1 <0>        -0.2775
     40 C27        -9.2256   -4.9732   -0.3002 C.3       1 <0>        -0.0944
     41 C28        -2.8533  -10.2096   -3.3223 C.3       1 <0>        -0.0894
     42 H3          8.4410   -4.6190    2.7222 H         1 <0>         0.0766
     43 H4          8.4622   -4.7463    0.9469 H         1 <0>         0.0734
     44 H5          7.5916   -3.4074    1.7328 H         1 <0>         0.0696
     45 H6          7.5434   -6.9869    0.9276 H         1 <0>         0.1340
     46 H7          5.5345   -8.3731    0.9856 H         1 <0>         0.1308
     47 H8          5.4514   -3.7765    2.8019 H         1 <0>         0.1267
     48 H9          1.1822   -6.3829    5.1312 H         1 <0>         0.0747
     49 H10        -0.2947   -7.2932    4.7333 H         1 <0>         0.0758
     50 H11         1.2966   -8.0813    4.6111 H         1 <0>         0.0669
     51 H12         0.8671   -8.3834    1.7402 H         1 <0>         0.4146
     52 H13        -3.3300   -7.4310    0.8875 H         1 <0>         0.1017
     53 H14        -2.6584   -7.9053   -0.7033 H         1 <0>         0.0890
     54 H15        -4.1779   -9.5574    2.3497 H         1 <0>         0.0893
     55 H16        -3.9355  -11.1190    1.5070 H         1 <0>         0.0922
     56 H17        -1.6749  -11.4584    0.3246 H         1 <0>         0.1183
     57 H18        -0.3326  -11.1391    1.4502 H         1 <0>         0.0998
     58 H19        -2.9446  -12.5628    2.1389 H         1 <0>         0.1344
     59 H20        -1.3600  -13.3423    1.9181 H         1 <0>         0.1406
     60 H21        -1.7804  -12.9540    4.2073 H         1 <0>         0.4344
     61 H22        -3.3473  -11.1450    3.9658 H         1 <0>         0.1341
     62 H23        -2.0764  -10.8195    5.1683 H         1 <0>         0.1396
     63 H24        -0.7783   -9.5709    3.4701 H         1 <0>         0.0994
     64 H25        -2.4085   -8.8776    3.6495 H         1 <0>         0.1271
     65 H26        -7.4393   -5.6515   -2.4585 H         1 <0>         0.1738
     66 H27       -10.1854   -5.3587   -0.6439 H         1 <0>         0.1029
     67 H28        -9.3021   -4.6918    0.7501 H         1 <0>         0.0931
     68 H29        -8.9522   -4.0992   -0.8915 H         1 <0>         0.1031
     69 H30        -3.3106  -11.1018   -3.7501 H         1 <0>         0.1017
     70 H31        -2.0799   -9.8394   -3.9953 H         1 <0>         0.0961
     71 H32        -2.4084  -10.4560   -2.3582 H         1 <0>         0.0834
     72 H33        -0.5453  -11.9795    3.7231 H         1 <0>         0.4282
     73 H34         2.6859   -4.5359    3.3184 H         1 <0>         0.4260
@<TRIPOS>BOND
     1    1    2 1
     2    1   42 1
     3    1   43 1
     4    1   44 1
     5    2    7 ar
     6    2    3 ar
     7    3    4 ar
     8    3   45 1
     9    4    5 ar
    10    4   46 1
    11    5   10 1
    12    5    6 ar
    13    6    7 ar
    14    6    8 1
    15    7   47 1
    16    8    9 1
    17    8   73 1
    18    9   10 2
    19    9   11 1
    20   11   12 1
    21   11   13 1
    22   11   14 1
    23   13   48 1
    24   13   49 1
    25   13   50 1
    26   14   15 am
    27   14   51 1
    28   15   16 2
    29   15   17 1
    30   17   18 1
    31   17   22 1
    32   17   19 1
    33   19   20 1
    34   19   52 1
    35   19   53 1
    36   20   21 1
    37   20   28 am
    38   21   22 1
    39   21   54 1
    40   21   55 1
    41   22   27 1
    42   22   23 1
    43   23   24 1
    44   23   56 1
    45   23   57 1
    46   24   25 1
    47   24   58 1
    48   24   59 1
    49   25   26 1
    50   25   60 1
    51   25   72 1
    52   26   27 1
    53   26   61 1
    54   26   62 1
    55   27   63 1
    56   27   64 1
    57   28   29 2
    58   28   30 1
    59   30   34 2
    60   30   31 1
    61   31   32 2
    62   31   41 1
    63   32   33 1
    64   33   34 1
    65   34   35 1
    66   35   39 2
    67   35   36 1
    68   36   37 2
    69   36   65 1
    70   37   38 1
    71   37   40 1
    72   38   39 1
    73   40   66 1
    74   40   67 1
    75   40   68 1
    76   41   69 1
    77   41   70 1
    78   41   71 1
