@<TRIPOS>MOLECULE
ZINC54728701
   52    53     0     0     0
SMALL
USER_CHARGES

@<TRIPOS>ATOM
      1 C1         -0.0175    1.5020    0.0051 C.3       1 <0>        -0.0751
      2 C2          0.0031   -0.0048   -0.0026 C.2       1 <0>        -0.1247
      3 C3         -1.0381   -0.8727   -0.0037 C.2       1 <0>        -0.1653
      4 C4         -0.7790   -2.2304   -0.0122 C.2       1 <0>        -0.1281
      5 C5          0.5087   -2.6539   -0.0192 C.2       1 <0>        -0.1700
      6 S1          1.4051   -1.1099   -0.0206 S.3       1 <0>         0.0252
      7 C6          1.0445   -4.0624   -0.0290 C.3       1 <0>         0.2485
      8 H1          0.2723   -4.7473    0.3215 H         1 <0>         0.1116
      9 C7          1.4548   -4.4420   -1.4532 C.3       1 <0>        -0.1595
     10 N1          2.2102   -4.1475    0.8542 N.am      1 <0>        -0.7401
     11 C8          2.5528   -5.3284    1.4061 C.2       1 <0>         0.7115
     12 O1          1.8432   -6.3028    1.2462 O.2       1 <0>        -0.5797
     13 N2          3.6818   -5.4294    2.1351 N.am      1 <0>        -0.6315
     14 C9          4.4882   -4.2384    2.4350 C.3       1 <0>         0.1092
     15 C10         5.9328   -4.4977    1.9959 C.3       1 <0>        -0.1303
     16 C11         6.4395   -5.7822    2.6557 C.3       1 <0>        -0.0825
     17 C12         5.5779   -6.9638    2.2042 C.3       1 <0>        -0.1363
     18 C13         4.1263   -6.7315    2.6503 C.3       1 <0>         0.1277
     19 C14         7.8935   -6.0260    2.2468 C.3       1 <0>        -0.1449
     20 C15         8.4393   -7.2392    3.0026 C.3       1 <0>        -0.0150
     21 N3          9.8354   -7.4733    2.6100 N.4       1 <0>        -0.3877
     22 C16        10.6629   -6.3400    3.0447 C.3       1 <0>        -0.0524
     23 C17        10.3220   -8.7062    3.2431 C.3       1 <0>        -0.0478
     24 H2          1.0051    1.8794   -0.0016 H         1 <0>         0.0735
     25 H3         -0.5438    1.8628   -0.8786 H         1 <0>         0.0850
     26 H4         -0.5287    1.8538    0.9012 H         1 <0>         0.0844
     27 H5         -2.0549   -0.5088    0.0023 H         1 <0>         0.1380
     28 H6         -1.5903   -2.9433   -0.0129 H         1 <0>         0.1368
     29 H7          2.2270   -3.7571   -1.8036 H         1 <0>         0.0593
     30 H8          1.8424   -5.4608   -1.4602 H         1 <0>         0.0685
     31 H9          0.5875   -4.3787   -2.1103 H         1 <0>         0.0746
     32 H10         2.7355   -3.3539    1.0419 H         1 <0>         0.3950
     33 H11         4.0897   -3.3811    1.8923 H         1 <0>         0.0808
     34 H12         4.4621   -4.0396    3.5064 H         1 <0>         0.0750
     35 H13         5.9697   -4.6065    0.9120 H         1 <0>         0.0737
     36 H14         6.5612   -3.6604    2.2996 H         1 <0>         0.0815
     37 H15         6.3792   -5.6820    3.7394 H         1 <0>         0.0855
     38 H16         5.6181   -7.0493    1.1183 H         1 <0>         0.0741
     39 H17         5.9537   -7.8817    2.6561 H         1 <0>         0.0743
     40 H18         4.0712   -6.7319    3.7389 H         1 <0>         0.0687
     41 H19         3.4890   -7.5199    2.2498 H         1 <0>         0.0999
     42 H20         7.9427   -6.2139    1.1742 H         1 <0>         0.0880
     43 H21         8.4914   -5.1476    2.4896 H         1 <0>         0.0897
     44 H22         8.3901   -7.0514    4.0751 H         1 <0>         0.1306
     45 H23         7.8415   -8.1177    2.7598 H         1 <0>         0.1324
     46 H24        11.6988   -6.5137    2.7534 H         1 <0>         0.1242
     47 H25        10.3018   -5.4251    2.5749 H         1 <0>         0.1240
     48 H26        10.6021   -6.2404    4.1284 H         1 <0>         0.1223
     49 H27         9.7080   -9.5471    2.9206 H         1 <0>         0.1234
     50 H28        11.3579   -8.8799    2.9518 H         1 <0>         0.1246
     51 H29        10.2612   -8.6066    4.3269 H         1 <0>         0.1220
     52 H30         9.8917   -7.5655    1.6068 H         1 <0>         0.4269
@<TRIPOS>BOND
     1    1    2 1
     2    1   24 1
     3    1   25 1
     4    1   26 1
     5    2    6 1
     6    2    3 2
     7    3    4 1
     8    3   27 1
     9    4    5 2
    10    4   28 1
    11    5    6 1
    12    5    7 1
    13    7    8 1
    14    7    9 1
    15    7   10 1
    16    9   29 1
    17    9   30 1
    18    9   31 1
    19   10   11 am
    20   10   32 1
    21   11   12 2
    22   11   13 am
    23   13   18 1
    24   13   14 1
    25   14   15 1
    26   14   33 1
    27   14   34 1
    28   15   16 1
    29   15   35 1
    30   15   36 1
    31   16   17 1
    32   16   19 1
    33   16   37 1
    34   17   18 1
    35   17   38 1
    36   17   39 1
    37   18   40 1
    38   18   41 1
    39   19   20 1
    40   19   42 1
    41   19   43 1
    42   20   21 1
    43   20   44 1
    44   20   45 1
    45   21   22 1
    46   21   23 1
    47   21   52 1
    48   22   46 1
    49   22   47 1
    50   22   48 1
    51   23   49 1
    52   23   50 1
    53   23   51 1
