@<TRIPOS>MOLECULE
ZINC00715168
   35    36     0     0     0
SMALL
USER_CHARGES
2,2,2-trichloroethyl 4-methyl-2-oxo-6-phenyl-3,6-dihydro-1H-pyrimidine-5-carboxylate
@<TRIPOS>ATOM
      1 C1          2.4251   -0.1982    0.2046 C.3       1 <0>        -0.1412
      2 C2          2.3907    1.3043    0.0927 C.2       1 <0>         0.2204
      3 C3          1.2053    1.9316   -0.0660 C.2       1 <0>        -0.2688
      4 C4          1.2156    3.4434   -0.1684 C.3       1 <0>         0.2476
      5 H1          0.7541    3.7190   -1.1166 H         1 <0>         0.0928
      6 N1          2.5273    4.1083   -0.0917 N.am      1 <0>        -0.7084
      7 C5          3.6261    3.3435    0.0630 C.2       1 <0>         0.7070
      8 O1          4.7135    3.8829    0.1279 O.2       1 <0>        -0.5610
      9 N2          3.5591    2.0089    0.1481 N.am      1 <0>        -0.6481
     10 C6          0.3529    3.9900    0.9397 C.ar      1 <0>        -0.1157
     11 C7          0.8549    4.0836    2.2243 C.ar      1 <0>        -0.0867
     12 C8          0.0650    4.5891    3.2399 C.ar      1 <0>        -0.1153
     13 C9         -1.2299    4.9925    2.9728 C.ar      1 <0>        -0.1093
     14 C10        -1.7337    4.8940    1.6892 C.ar      1 <0>        -0.1147
     15 C11        -0.9423    4.3925    0.6728 C.ar      1 <0>        -0.1056
     16 C12        -0.0053    1.2026   -0.1284 C.2       1 <0>         0.5606
     17 O2         -0.5212    0.9710   -1.2059 O.2       1 <0>        -0.4825
     18 O3         -0.5910    0.7687    1.0072 O.3       1 <0>        -0.3294
     19 C13        -1.8150    0.0440    0.8700 C.3       1 <0>         0.0637
     20 C14        -2.3249   -0.3624    2.2541 C.3       1 <0>         0.1331
     21 Cl1        -2.6095    1.1152    3.2474 Cl        1 <0>        -0.0676
     22 Cl2        -3.8692   -1.2767    2.0809 Cl        1 <0>        -0.0671
     23 Cl3        -1.0971   -1.4044    3.0649 Cl        1 <0>        -0.0761
     24 H2          2.5615   -0.6333   -0.7854 H         1 <0>         0.0990
     25 H3          3.2521   -0.4956    0.8494 H         1 <0>         0.0921
     26 H4          1.4865   -0.5523    0.6309 H         1 <0>         0.0919
     27 H5          2.5987    5.0739   -0.1514 H         1 <0>         0.4355
     28 H6          4.3867    1.5152    0.2587 H         1 <0>         0.4298
     29 H7          1.8654    3.7650    2.4337 H         1 <0>         0.1147
     30 H8          0.4587    4.6664    4.2426 H         1 <0>         0.1221
     31 H9         -1.8479    5.3849    3.7668 H         1 <0>         0.1213
     32 H10        -2.7453    5.2091    1.4805 H         1 <0>         0.1234
     33 H11        -1.3359    4.3155   -0.3300 H         1 <0>         0.1217
     34 H12        -2.5572    0.6740    0.3798 H         1 <0>         0.1108
     35 H13        -1.6429   -0.8492    0.2694 H         1 <0>         0.1101
@<TRIPOS>BOND
     1    1    2 1
     2    1   24 1
     3    1   25 1
     4    1   26 1
     5    2    9 1
     6    2    3 2
     7    3    4 1
     8    3   16 1
     9    4    5 1
    10    4    6 1
    11    4   10 1
    12    6    7 am
    13    6   27 1
    14    7    8 2
    15    7    9 am
    16    9   28 1
    17   10   15 ar
    18   10   11 ar
    19   11   12 ar
    20   11   29 1
    21   12   13 ar
    22   12   30 1
    23   13   14 ar
    24   13   31 1
    25   14   15 ar
    26   14   32 1
    27   15   33 1
    28   16   17 2
    29   16   18 1
    30   18   19 1
    31   19   20 1
    32   19   34 1
    33   19   35 1
    34   20   21 1
    35   20   22 1
    36   20   23 1
