@<TRIPOS>MOLECULE
ZINC38581349
   52    57     0     0     0
SMALL
USER_CHARGES

@<TRIPOS>ATOM
      1 C1          6.8772   -4.1580    0.1720 C.ar      1 <0>        -0.1528
      2 C2          7.3263   -2.8694    0.4698 C.ar      1 <0>         0.0380
      3 C3          6.4661   -1.8437    0.6832 C.ar      1 <0>        -0.2021
      4 C4          5.0669   -2.0685    0.6055 C.ar      1 <0>         0.3096
      5 N1          4.0427   -1.2548    0.7685 N.pl3     1 <0>        -0.6077
      6 C5          2.7955   -2.0013    0.5771 C.3       1 <0>         0.0752
      7 C6          3.2035   -3.4243    0.2656 C.2       1 <0>         0.1585
      8 C7          4.5993   -3.4285    0.2913 C.ar      1 <0>        -0.1762
      9 C8          5.5535   -4.4466    0.0816 C.ar      1 <0>        -0.0138
     10 C9          2.3596   -4.5082    0.0062 C.2       1 <0>        -0.0653
     11 N2          1.0579   -4.3435    0.0177 N.2       1 <0>        -0.0887
     12 N3          0.2777   -5.3635   -0.1047 N.pl3     1 <0>        -0.3512
     13 C10        -1.1028   -5.2953   -0.2182 C.ar      1 <0>         0.3216
     14 C11        -1.6727   -6.5729   -0.3378 C.ar      1 <0>         0.1010
     15 N4         -2.9701   -6.7280   -0.4560 N.ar      1 <0>        -0.3633
     16 C12        -3.7734   -5.6578   -0.4639 C.ar      1 <0>         0.0820
     17 C13        -5.1657   -5.7956   -0.5885 C.ar      1 <0>        -0.0723
     18 C14        -5.9562   -4.6873   -0.5928 C.ar      1 <0>        -0.0857
     19 C15        -5.4038   -3.4132   -0.4752 C.ar      1 <0>        -0.0722
     20 C16        -4.0593   -3.2414   -0.3531 C.ar      1 <0>        -0.0884
     21 C17        -3.2106   -4.3626   -0.3441 C.ar      1 <0>         0.1234
     22 N5         -1.8876   -4.2240   -0.2257 N.ar      1 <0>        -0.4155
     23 C18        -0.5565   -7.5938   -0.2998 C.3       1 <0>        -0.5427
     24 H1         -0.6806   -8.2618    0.5525 H         1 <0>         0.1989
     25 C19         0.7245   -6.7574   -0.1499 C.3       1 <0>         0.2897
     26 H2          1.3824   -6.9152   -1.0045 H         1 <0>         0.1377
     27 N6          1.4160   -7.1103    1.0972 N.3       1 <0>        -0.8038
     28 S1         -0.5133   -8.5427   -1.8452 S.o2      1 <0>         2.5523
     29 O1         -0.3929   -7.6643   -2.9557 O.2       1 <0>        -0.9086
     30 O2          0.3527   -9.6610   -1.7089 O.2       1 <0>        -0.8931
     31 C20        -2.1254   -9.2381   -1.9948 C.2       1 <0>        -0.7609
     32 C21        -3.2228   -8.7260   -2.6037 C.2       1 <0>         0.0290
     33 C22        -4.3956   -9.4575   -2.5973 C.2       1 <0>        -0.1941
     34 C23        -4.4137  -10.6653   -1.9824 C.2       1 <0>        -0.1152
     35 S2         -2.7351  -10.8034   -1.3905 S.3       1 <0>         0.1799
     36 H3          7.6002   -4.9427    0.0053 H         1 <0>         0.1531
     37 H4          8.3886   -2.6851    0.5322 H         1 <0>         0.1570
     38 H5          6.8444   -0.8583    0.9119 H         1 <0>         0.1565
     39 H6          2.1978   -1.9732    1.4882 H         1 <0>         0.1676
     40 H7          2.2312   -1.5818   -0.2557 H         1 <0>         0.1706
     41 H8          5.2323   -5.4512   -0.1504 H         1 <0>         0.1528
     42 H9          2.7790   -5.4810   -0.2037 H         1 <0>         0.1549
     43 H10        -5.6073   -6.7769   -0.6809 H         1 <0>         0.1506
     44 H11        -7.0263   -4.7968   -0.6892 H         1 <0>         0.1488
     45 H12        -6.0522   -2.5496   -0.4813 H         1 <0>         0.1484
     46 H13        -3.6458   -2.2477   -0.2635 H         1 <0>         0.1485
     47 H14         2.2127   -6.5106    1.2511 H         1 <0>         0.3610
     48 H15         0.7833   -7.0797    1.8826 H         1 <0>         0.3701
     49 H16        -3.1815   -7.7607   -3.0863 H         1 <0>         0.1380
     50 H17        -5.2844   -9.0722   -3.0749 H         1 <0>         0.1474
     51 H18        -5.2305  -11.3644   -1.8805 H         1 <0>         0.2002
     52 H19         4.1046   -0.3106    0.9816 H         1 <0>         0.4512
@<TRIPOS>BOND
     1    1    9 ar
     2    1    2 ar
     3    1   36 1
     4    2    3 ar
     5    2   37 1
     6    3    4 ar
     7    3   38 1
     8    4    8 ar
     9    4    5 2
    10    5    6 1
    11    5   52 1
    12    6    7 1
    13    6   39 1
    14    6   40 1
    15    7    8 2
    16    7   10 1
    17    8    9 ar
    18    9   41 1
    19   10   11 2
    20   10   42 1
    21   11   12 1
    22   12   25 1
    23   12   13 1
    24   13   22 ar
    25   13   14 ar
    26   14   15 ar
    27   14   23 1
    28   15   16 ar
    29   16   21 ar
    30   16   17 ar
    31   17   18 ar
    32   17   43 1
    33   18   19 ar
    34   18   44 1
    35   19   20 ar
    36   19   45 1
    37   20   21 ar
    38   20   46 1
    39   21   22 ar
    40   23   24 1
    41   23   25 1
    42   23   28 1
    43   25   26 1
    44   25   27 1
    45   27   47 1
    46   27   48 1
    47   28   29 2
    48   28   30 2
    49   28   31 1
    50   31   35 1
    51   31   32 2
    52   32   33 1
    53   32   49 1
    54   33   34 2
    55   33   50 1
    56   34   35 1
    57   34   51 1
