@<TRIPOS>MOLECULE
ZINC38668698
   47    51     0     0     0
SMALL
USER_CHARGES

@<TRIPOS>ATOM
      1 C1         -2.5270   -0.7779   -0.6837 C.3       1 <0>        -0.0809
      2 C2         -1.0862   -0.9973   -0.3003 C.2       1 <0>         0.1362
      3 C3          0.0112   -0.8097   -1.1246 C.2       1 <0>        -0.1501
      4 N1          1.1260   -1.1244   -0.3692 N.pl3     1 <0>        -0.3292
      5 C4          2.4556   -1.1238   -0.6530 C.2       1 <0>         0.0526
      6 C5          3.3610   -1.4831    0.2855 C.2       1 <0>        -0.1316
      7 C6          2.9345   -1.8608    1.5662 C.2       1 <0>        -0.0929
      8 C7          1.6035   -1.8637    1.8592 C.2       1 <0>        -0.0802
      9 C8          0.6781   -1.4872    0.8690 C.2       1 <0>         0.2423
     10 N2         -0.6507   -1.3971    0.8836 N.2       1 <0>        -0.4893
     11 C9         -0.0054   -0.3805   -2.4761 C.2       1 <0>         0.6074
     12 O1         -0.1183    0.8035   -2.7376 O.2       1 <0>        -0.5134
     13 N3          0.1038   -1.2830   -3.4711 N.am      1 <0>        -0.7210
     14 C10         0.2003   -0.8321   -4.8617 C.3       1 <0>         0.1241
     15 C11         0.3140   -2.0468   -5.7849 C.3       1 <0>        -0.0760
     16 C12         0.4133   -1.5830   -7.2154 C.2       1 <0>         0.0944
     17 C13         1.6136   -1.4436   -7.7818 C.2       1 <0>        -0.1794
     18 S1          1.1778   -0.8909   -9.4237 S.3       1 <0>         0.1818
     19 C14        -0.5863   -0.8937   -9.2100 C.2       1 <0>         0.2263
     20 N4         -0.7331   -1.3139   -7.9231 N.pl3     1 <0>        -0.3468
     21 N5         -2.1376   -1.3335   -7.7192 N.2       1 <0>        -0.2833
     22 C15        -2.7081   -0.9492   -8.8388 C.2       1 <0>         0.3021
     23 N6         -1.7570   -0.6756   -9.7403 N.2       1 <0>        -0.4726
     24 C16        -4.1694   -0.8275   -9.0639 C.ar      1 <0>        -0.0620
     25 C17        -5.0626   -1.1270   -8.0372 C.ar      1 <0>        -0.0498
     26 C18        -6.4210   -1.0121   -8.2518 C.ar      1 <0>        -0.1352
     27 C19        -6.8981   -0.6005   -9.4835 C.ar      1 <0>        -0.0661
     28 C20        -6.0183   -0.3019  -10.5074 C.ar      1 <0>        -0.1610
     29 C21        -4.6548   -0.4071  -10.3027 C.ar      1 <0>         0.1487
     30 F1         -3.7950   -0.1095  -11.3014 F         1 <0>        -0.1134
     31 H1         -2.8067    0.2538   -0.4702 H         1 <0>         0.0855
     32 H2         -2.6540   -0.9759   -1.7480 H         1 <0>         0.0738
     33 H3         -3.1625   -1.4527   -0.1102 H         1 <0>         0.0853
     34 H4          2.7922   -0.8341   -1.6375 H         1 <0>         0.1619
     35 H5          4.4144   -1.4793    0.0475 H         1 <0>         0.1569
     36 H6          3.6564   -2.1482    2.3164 H         1 <0>         0.1492
     37 H7          1.2624   -2.1530    2.8422 H         1 <0>         0.1574
     38 H8          0.1185   -2.2311   -3.2665 H         1 <0>         0.4044
     39 H9         -0.6910   -0.2607   -5.1210 H         1 <0>         0.0757
     40 H10         1.0824   -0.2026   -4.9791 H         1 <0>         0.0766
     41 H11         1.2053   -2.6182   -5.5256 H         1 <0>         0.1041
     42 H12        -0.5680   -2.6763   -5.6675 H         1 <0>         0.0950
     43 H13         2.5916   -1.6190   -7.3586 H         1 <0>         0.2267
     44 H14        -4.6924   -1.4489   -7.0750 H         1 <0>         0.1412
     45 H15        -7.1134   -1.2446   -7.4563 H         1 <0>         0.1391
     46 H16        -7.9621   -0.5123   -9.6460 H         1 <0>         0.1401
     47 H17        -6.3964    0.0183  -11.4670 H         1 <0>         0.1450
@<TRIPOS>BOND
     1    1    2 1
     2    1   31 1
     3    1   32 1
     4    1   33 1
     5    2   10 1
     6    2    3 2
     7    3    4 1
     8    3   11 1
     9    4    9 1
    10    4    5 1
    11    5    6 2
    12    5   34 1
    13    6    7 1
    14    6   35 1
    15    7    8 2
    16    7   36 1
    17    8    9 1
    18    8   37 1
    19    9   10 2
    20   11   12 2
    21   11   13 am
    22   13   14 1
    23   13   38 1
    24   14   15 1
    25   14   39 1
    26   14   40 1
    27   15   16 1
    28   15   41 1
    29   15   42 1
    30   16   20 1
    31   16   17 2
    32   17   18 1
    33   17   43 1
    34   18   19 1
    35   19   23 2
    36   19   20 1
    37   20   21 1
    38   21   22 2
    39   22   23 1
    40   22   24 1
    41   24   29 ar
    42   24   25 ar
    43   25   26 ar
    44   25   44 1
    45   26   27 ar
    46   26   45 1
    47   27   28 ar
    48   27   46 1
    49   28   29 ar
    50   28   47 1
    51   29   30 1
