@<TRIPOS>MOLECULE
ZINC40826676
   52    55     0     0     0
SMALL
USER_CHARGES

@<TRIPOS>ATOM
      1 C1         -0.0184    1.5028    0.0103 C.3       1 <0>        -0.1152
      2 C2          0.0021   -0.0041    0.0020 C.ar      1 <0>        -0.0644
      3 C3          0.0056   -0.6839   -1.2074 C.ar      1 <0>        -0.1275
      4 C4          0.0236   -2.0509   -1.2331 C.ar      1 <0>        -0.0725
      5 C5          0.0390   -2.7644   -0.0355 C.ar      1 <0>        -0.1140
      6 C6          0.0604   -4.1911    0.3090 C.2       1 <0>        -0.1680
      7 C7          0.0682   -4.2520    1.6476 C.2       1 <0>         0.0276
      8 O1          0.0538   -3.0123    2.1678 O.3       1 <0>        -0.1877
      9 C8          0.0360   -2.0819    1.1924 C.ar      1 <0>         0.0570
     10 C9          0.0228   -0.6925    1.1961 C.ar      1 <0>        -0.0726
     11 C10         0.0249    0.0597    2.5020 C.3       1 <0>        -0.1149
     12 C11         0.0714   -5.3536   -0.6498 C.3       1 <0>        -0.0586
     13 C12         1.4888   -5.6429   -1.0723 C.2       1 <0>         0.5263
     14 O2          2.4005   -4.9709   -0.6375 O.2       1 <0>        -0.4852
     15 N1          1.7435   -6.6480   -1.9333 N.am      1 <0>        -0.5872
     16 N2          3.0612   -6.9169   -2.3261 N.2       1 <0>        -0.2168
     17 C13         3.3064   -7.8845   -3.1548 C.2       1 <0>         0.1621
     18 C14         2.2055   -8.7576   -3.7391 C.3       1 <0>        -0.1178
     19 C15         2.6880  -10.2119   -3.7248 C.3       1 <0>        -0.1095
     20 C16         3.8953  -10.3895   -4.6495 C.3       1 <0>        -0.0438
     21 C17         4.9523   -9.3751   -4.2933 C.2       1 <0>         0.0630
     22 C18         4.6764   -8.2156   -3.6056 C.2       1 <0>        -0.1555
     23 C19         5.8809   -7.5175   -3.4553 C.2       1 <0>        -0.0268
     24 C20         6.8409   -8.2761   -4.0648 C.2       1 <0>        -0.1081
     25 O3          6.2565   -9.3955   -4.5574 O.3       1 <0>        -0.1471
     26 C21         8.2662   -7.9407   -4.1591 C.2       1 <0>         0.6123
     27 O4          8.6820   -6.9078   -3.6681 O.2       1 <0>        -0.5154
     28 N3          9.1149   -8.7766   -4.7896 N.am      1 <0>        -0.8451
     29 C22         6.0790   -6.1945   -2.7613 C.3       1 <0>        -0.0955
     30 H1          1.0042    1.8801    0.0026 H         1 <0>         0.0745
     31 H2         -0.5455    1.8639   -0.8728 H         1 <0>         0.0705
     32 H3         -0.5286    1.8543    0.9071 H         1 <0>         0.0715
     33 H4         -0.0064   -0.1300   -2.1344 H         1 <0>         0.1289
     34 H5          0.0255   -2.5757   -2.1770 H         1 <0>         0.1221
     35 H6          0.0837   -5.1646    2.2249 H         1 <0>         0.2068
     36 H7         -1.0021    0.2270    2.8265 H         1 <0>         0.0725
     37 H8          0.5539   -0.5231    3.2561 H         1 <0>         0.0679
     38 H9          0.5244    1.0191    2.3678 H         1 <0>         0.0737
     39 H10        -0.3483   -6.2324   -0.1603 H         1 <0>         0.1099
     40 H11        -0.5260   -5.1065   -1.5274 H         1 <0>         0.1089
     41 H12         1.0146   -7.1853   -2.2810 H         1 <0>         0.3848
     42 H13         1.3028   -8.6639   -3.1355 H         1 <0>         0.0797
     43 H14         1.9970   -8.4496   -4.7637 H         1 <0>         0.0981
     44 H15         2.9705  -10.4866   -2.7085 H         1 <0>         0.0761
     45 H16         1.8799  -10.8618   -4.0604 H         1 <0>         0.0932
     46 H17         4.3005  -11.3942   -4.5295 H         1 <0>         0.0994
     47 H18         3.5853  -10.2435   -5.6842 H         1 <0>         0.1027
     48 H19         8.7835   -9.5999   -5.1809 H         1 <0>         0.4060
     49 H20        10.0572   -8.5549   -4.8519 H         1 <0>         0.4105
     50 H21         6.3006   -6.3663   -1.7080 H         1 <0>         0.0794
     51 H22         6.9092   -5.6617   -3.2251 H         1 <0>         0.0854
     52 H23         5.1706   -5.5986   -2.8490 H         1 <0>         0.0785
@<TRIPOS>BOND
     1    1    2 1
     2    1   30 1
     3    1   31 1
     4    1   32 1
     5    2   10 ar
     6    2    3 ar
     7    3    4 ar
     8    3   33 1
     9    4    5 ar
    10    4   34 1
    11    5    9 ar
    12    5    6 1
    13    6    7 2
    14    6   12 1
    15    7    8 1
    16    7   35 1
    17    8    9 1
    18    9   10 ar
    19   10   11 1
    20   11   36 1
    21   11   37 1
    22   11   38 1
    23   12   13 1
    24   12   39 1
    25   12   40 1
    26   13   14 2
    27   13   15 am
    28   15   16 1
    29   15   41 1
    30   16   17 2
    31   17   22 1
    32   17   18 1
    33   18   19 1
    34   18   42 1
    35   18   43 1
    36   19   20 1
    37   19   44 1
    38   19   45 1
    39   20   21 1
    40   20   46 1
    41   20   47 1
    42   21   25 1
    43   21   22 2
    44   22   23 1
    45   23   24 2
    46   23   29 1
    47   24   25 1
    48   24   26 1
    49   26   27 2
    50   26   28 am
    51   28   48 1
    52   28   49 1
    53   29   50 1
    54   29   51 1
    55   29   52 1
