@<TRIPOS>MOLECULE
ZINC20203443
   35    36     0     0     0
SMALL
USER_CHARGES
N-[2-[[(3S)-6-hydroxy-2,3-dihydrobenzofuran-3-yl]amino]ethyl]methanesulfonamide
@<TRIPOS>ATOM
      1 C1         -2.5454   -0.4529   -0.9393 C.3       1 <0>        -0.6815
      2 S1         -1.3682   -0.8528    0.3817 S.o2      1 <0>         2.6159
      3 O1         -0.9839   -2.2183    0.2980 O.2       1 <0>        -0.9401
      4 O2         -1.8084   -0.2984    1.6139 O.2       1 <0>        -0.9485
      5 N1          0.0021   -0.0041    0.0020 N.pl3     1 <0>        -1.1282
      6 C2         -0.0178    1.4608    0.0101 C.3       1 <0>         0.0915
      7 C3          1.4176    1.9904   -0.0008 C.3       1 <0>        -0.0115
      8 N2          1.3977    3.4592    0.0073 N.4       1 <0>        -0.5450
      9 C4          2.7618    4.0043   -0.0028 C.3       1 <0>         0.0651
     10 H1          3.3268    3.2587   -0.5814 H         1 <0>         0.1529
     11 C5          3.2659    4.2596    1.4373 C.3       1 <0>         0.0417
     12 O3          2.9090    5.6341    1.6609 O.3       1 <0>        -0.2843
     13 C6          2.8803    6.2908    0.4687 C.ar      1 <0>         0.1728
     14 C7          2.7832    5.4007   -0.5942 C.ar      1 <0>        -0.2893
     15 C8          2.7264    5.8546   -1.8935 C.ar      1 <0>        -0.0002
     16 C9          2.7722    7.2117   -2.1555 C.ar      1 <0>        -0.1840
     17 C10         2.8748    8.1119   -1.1046 C.ar      1 <0>         0.2381
     18 C11         2.9291    7.6556    0.2015 C.ar      1 <0>        -0.2353
     19 O4          2.9226    9.4462   -1.3583 O.3       1 <0>        -0.4918
     20 H2         -2.8352    0.6056   -0.8641 H         1 <0>         0.1262
     21 H3         -3.4393   -1.0859   -0.8378 H         1 <0>         0.1387
     22 H4         -2.0755   -0.6359   -1.9169 H         1 <0>         0.1314
     23 H5          0.8690   -0.5401   -0.4118 H         1 <0>         0.4507
     24 H6         -0.5499    1.8252   -0.8810 H         1 <0>         0.0814
     25 H7         -0.5327    1.8155    0.9151 H         1 <0>         0.1052
     26 H8          1.9496    1.6260    0.8903 H         1 <0>         0.1399
     27 H9          1.9325    1.6357   -0.9058 H         1 <0>         0.1380
     28 H10         0.8657    3.8236   -0.8839 H         1 <0>         0.4528
     29 H11         2.7596    3.5716    2.1303 H         1 <0>         0.1313
     30 H12         4.3520    4.0907    1.4810 H         1 <0>         0.1260
     31 H13         2.6461    5.1501   -2.7081 H         1 <0>         0.1416
     32 H14         2.7284    7.5693   -3.1736 H         1 <0>         0.1487
     33 H15         3.0092    8.3610    1.0153 H         1 <0>         0.1464
     34 H16         3.0039   10.1616   -0.5267 H         1 <0>         0.4536
     35 H17         0.8828    3.8140    0.9123 H         1 <0>         0.4498
@<TRIPOS>BOND
     1    1    2 1
     2    1   20 1
     3    1   21 1
     4    1   22 1
     5    2    3 2
     6    2    4 2
     7    2    5 1
     8    5    6 1
     9    5   23 1
    10    6    7 1
    11    6   24 1
    12    6   25 1
    13    7    8 1
    14    7   26 1
    15    7   27 1
    16    8    9 1
    17    8   28 1
    18    8   35 1
    19    9   10 1
    20    9   14 1
    21    9   11 1
    22   11   12 1
    23   11   29 1
    24   11   30 1
    25   12   13 1
    26   13   18 ar
    27   13   14 ar
    28   14   15 ar
    29   15   16 ar
    30   15   31 1
    31   16   17 ar
    32   16   32 1
    33   17   18 ar
    34   17   19 1
    35   18   33 1
    36   19   34 1
