@<TRIPOS>MOLECULE
ZINC33469419
   59    62     0     0     0
SMALL
USER_CHARGES
5-[(Z)-(3-cyclopentyl-4-oxo-2-thioxo-thiazolidin-5-ylidene)methyl]-1-ethyl-4-methyl-2-oxo-6-(1-piperidyl)pyridine-3-carbonitrile
@<TRIPOS>ATOM
      1 C1         -0.5026    1.4612   -1.1373 C.3       1 <0>        -0.1660
      2 C2          0.1380    1.0175    0.1794 C.3       1 <0>         0.0822
      3 N1         -0.6420    1.5418    1.3031 N.am      1 <0>        -0.4668
      4 C3         -1.5956    0.7622    1.8746 C.2       1 <0>         0.4413
      5 C4         -2.3568    1.2413    2.9535 C.2       1 <0>        -0.2628
      6 C5         -2.1246    2.5386    3.4407 C.2       1 <0>         0.1142
      7 C6         -1.1414    3.3179    2.8376 C.2       1 <0>        -0.1711
      8 C7         -0.3971    2.7852    1.7543 C.2       1 <0>         0.5469
      9 O1          0.4683    3.4606    1.2255 O.2       1 <0>        -0.5105
     10 C8         -0.8805    4.6443    3.3101 C.1       1 <0>         0.2765
     11 N2         -0.6735    5.6966    3.6849 N.1       1 <0>        -0.4066
     12 C9         -2.9265    3.0774    4.5973 C.3       1 <0>        -0.1533
     13 C10        -3.3833    0.3957    3.5657 C.2       1 <0>         0.1163
     14 C11        -3.2257   -0.0497    4.8419 C.2       1 <0>        -0.2390
     15 C12        -4.0496   -0.9327    5.6043 C.2       1 <0>         0.5448
     16 O2         -5.0646   -1.4099    5.1297 O.2       1 <0>        -0.4595
     17 N3         -3.6748   -1.2202    6.8387 N.am      1 <0>        -0.5211
     18 C13        -2.5521   -0.6848    7.3674 C.2       1 <0>         0.2683
     19 S1         -1.8888   -0.9103    8.9294 S.2       1 <0>        -0.2959
     20 S2         -1.9353    0.3173    6.0233 S.3       1 <0>         0.0598
     21 C14        -4.4923   -2.1270    7.6484 C.3       1 <0>         0.1073
     22 C15        -4.9456   -1.4177    8.9411 C.3       1 <0>        -0.1383
     23 C16        -4.8940   -2.5281   10.0208 C.3       1 <0>        -0.1118
     24 C17        -3.6304   -3.3319    9.6255 C.3       1 <0>        -0.1189
     25 C18        -3.6568   -3.3438    8.0831 C.3       1 <0>        -0.1218
     26 N4         -1.8159   -0.4967    1.3972 N.pl3     1 <0>        -0.5198
     27 C19        -3.1546   -0.6078    0.8038 C.3       1 <0>         0.0519
     28 C20        -3.3124   -1.9832    0.1516 C.3       1 <0>        -0.1164
     29 C21        -3.1112   -3.0708    1.2105 C.3       1 <0>        -0.1276
     30 C22        -1.7287   -2.9031    1.8468 C.3       1 <0>        -0.1160
     31 C23        -1.6167   -1.5010    2.4499 C.3       1 <0>         0.0477
     32 H1          0.0832    1.0675   -1.9810 H         1 <0>         0.0822
     33 H2         -0.5204    2.5600   -1.1844 H         1 <0>         0.0656
     34 H3         -1.5311    1.0751   -1.1931 H         1 <0>         0.0617
     35 H4          0.1558   -0.0813    0.2265 H         1 <0>         0.1145
     36 H5          1.1665    1.4036    0.2352 H         1 <0>         0.1041
     37 H6         -2.5969    4.1015    4.8265 H         1 <0>         0.0850
     38 H7         -2.7742    2.4373    5.4788 H         1 <0>         0.0990
     39 H8         -3.9937    3.0867    4.3308 H         1 <0>         0.0971
     40 H9         -4.2819    0.1204    2.9941 H         1 <0>         0.1742
     41 H10        -5.3370   -2.4081    7.0023 H         1 <0>         0.1209
     42 H11        -4.2566   -0.5903    9.1662 H         1 <0>         0.0863
     43 H12        -5.9625   -1.0212    8.8045 H         1 <0>         0.0715
     44 H13        -4.8102   -2.0678   11.0164 H         1 <0>         0.0753
     45 H14        -5.8131   -3.1305    9.9715 H         1 <0>         0.0680
     46 H15        -2.7363   -2.8264   10.0192 H         1 <0>         0.0946
     47 H16        -3.6939   -4.3458   10.0473 H         1 <0>         0.0671
     48 H17        -4.1261   -4.2644    7.7060 H         1 <0>         0.0789
     49 H18        -2.6400   -3.2559    7.6727 H         1 <0>         0.0701
     50 H19        -3.9151   -0.4855    1.5891 H         1 <0>         0.0586
     51 H20        -3.2844    0.1755    0.0425 H         1 <0>         0.0901
     52 H21        -4.3205   -2.0709   -0.2798 H         1 <0>         0.0805
     53 H22        -2.5617   -2.1001   -0.6439 H         1 <0>         0.0789
     54 H23        -3.8877   -2.9775    1.9840 H         1 <0>         0.0643
     55 H24        -3.1824   -4.0612    0.7371 H         1 <0>         0.0736
     56 H25        -1.5953   -3.6560    2.6376 H         1 <0>         0.0771
     57 H26        -0.9528   -3.0368    1.0786 H         1 <0>         0.0790
     58 H27        -0.6191   -1.3725    2.8952 H         1 <0>         0.0883
     59 H28        -2.3844   -1.3744    3.2275 H         1 <0>         0.0597
@<TRIPOS>BOND
     1    1    2 1
     2    1   32 1
     3    1   33 1
     4    1   34 1
     5    2    3 1
     6    2   35 1
     7    2   36 1
     8    3    8 am
     9    3    4 1
    10    4    5 2
    11    4   26 1
    12    5    6 1
    13    5   13 1
    14    6    7 2
    15    6   12 1
    16    7    8 1
    17    7   10 1
    18    8    9 2
    19   10   11 3
    20   12   37 1
    21   12   38 1
    22   12   39 1
    23   13   14 2
    24   13   40 1
    25   14   20 1
    26   14   15 1
    27   15   16 2
    28   15   17 am
    29   17   18 1
    30   17   21 1
    31   18   19 2
    32   18   20 1
    33   21   25 1
    34   21   22 1
    35   21   41 1
    36   22   23 1
    37   22   42 1
    38   22   43 1
    39   23   24 1
    40   23   44 1
    41   23   45 1
    42   24   25 1
    43   24   46 1
    44   24   47 1
    45   25   48 1
    46   25   49 1
    47   26   31 1
    48   26   27 1
    49   27   28 1
    50   27   50 1
    51   27   51 1
    52   28   29 1
    53   28   52 1
    54   28   53 1
    55   29   30 1
    56   29   54 1
    57   29   55 1
    58   30   31 1
    59   30   56 1
    60   30   57 1
    61   31   58 1
    62   31   59 1
