@<TRIPOS>MOLECULE
ZINC13598632
   57    59     0     0     0
SMALL
USER_CHARGES
(2R,3R,5S,6R)-4-butyl-2,6-bis(4-chlorophenyl)-3,5-dimethyl-piperidin-4-ol
@<TRIPOS>ATOM
      1 C1          4.0728   -4.5807   -5.4549 C.3       1 <0>        -0.1564
      2 C2          3.7996   -3.1476   -4.9939 C.3       1 <0>        -0.1265
      3 C3          3.2481   -3.1674   -3.5669 C.3       1 <0>        -0.1236
      4 C4          2.9748   -1.7343   -3.1058 C.3       1 <0>        -0.1488
      5 C5          2.5548   -1.7432   -1.6346 C.3       1 <0>         0.1368
      6 C6          3.7007   -2.2900   -0.7787 C.3       1 <0>        -0.0791
      7 H1          3.9668   -3.2898   -1.1216 H         1 <0>         0.1057
      8 C7          3.2533   -2.3535    0.6835 C.3       1 <0>         0.0638
      9 H2          3.0012   -1.3513    1.0300 H         1 <0>         0.1719
     10 C8          0.9464   -2.6917    0.0229 C.3       1 <0>         0.0896
     11 H3          0.0797   -3.3397    0.1530 H         1 <0>         0.1524
     12 C9          1.3249   -2.6382   -1.4590 C.3       1 <0>        -0.1343
     13 H4          1.5530   -3.6436   -1.8129 H         1 <0>         0.1119
     14 C10         0.1570   -2.0651   -2.2642 C.3       1 <0>        -0.1723
     15 C11         0.6128   -1.3039    0.5063 C.ar      1 <0>        -0.0904
     16 C12        -0.2886   -0.5257   -0.1959 C.ar      1 <0>        -0.1177
     17 C13        -0.5953    0.7471    0.2472 C.ar      1 <0>        -0.0915
     18 C14         0.0003    1.2424    1.3935 C.ar      1 <0>        -0.0213
     19 C15         0.9024    0.4632    2.0958 C.ar      1 <0>        -0.0868
     20 C16         1.2079   -0.8096    1.6520 C.ar      1 <0>        -0.1287
     21 Cl1        -0.3840    2.8411    1.9504 Cl        1 <0>        -0.0451
     22 C17         4.3715   -2.9099    1.5267 C.ar      1 <0>        -0.1366
     23 C18         4.5868   -4.2746    1.5755 C.ar      1 <0>        -0.1104
     24 C19         5.6158   -4.7851    2.3443 C.ar      1 <0>        -0.0960
     25 C20         6.4232   -3.9309    3.0740 C.ar      1 <0>        -0.0141
     26 C21         6.2036   -2.5656    3.0293 C.ar      1 <0>        -0.0969
     27 C22         5.1779   -2.0559    2.2557 C.ar      1 <0>        -0.0718
     28 Cl2         7.7109   -4.5719    4.0459 Cl        1 <0>        -0.0384
     29 C23         4.9152   -1.3677   -0.9016 C.3       1 <0>        -0.1471
     30 O1          2.2416   -0.4122   -1.2194 O.3       1 <0>        -0.5395
     31 H5          4.8020   -5.0435   -4.7899 H         1 <0>         0.0536
     32 H6          3.1454   -5.1529   -5.4317 H         1 <0>         0.0541
     33 H7          4.4658   -4.5666   -6.4715 H         1 <0>         0.0595
     34 H8          3.0704   -2.6848   -5.6589 H         1 <0>         0.0647
     35 H9          4.7270   -2.5754   -5.0171 H         1 <0>         0.0645
     36 H10         3.9773   -3.6302   -2.9019 H         1 <0>         0.0643
     37 H11         2.3206   -3.7396   -3.5437 H         1 <0>         0.0653
     38 H12         2.1753   -1.3047   -3.7094 H         1 <0>         0.0786
     39 H13         3.8789   -1.1366   -3.2220 H         1 <0>         0.0869
     40 H14         0.1512   -0.9790   -2.1732 H         1 <0>         0.0844
     41 H15         0.2684   -2.3413   -3.3127 H         1 <0>         0.0844
     42 H16        -0.7808   -2.4669   -1.8803 H         1 <0>         0.0808
     43 H17        -0.7535   -0.9125   -1.0907 H         1 <0>         0.1673
     44 H18        -1.2964    1.3564   -0.3037 H         1 <0>         0.1445
     45 H19         1.3674    0.8492    2.9909 H         1 <0>         0.1418
     46 H20         1.9115   -1.4183    2.2005 H         1 <0>         0.1240
     47 H21         3.9537   -4.9417    1.0092 H         1 <0>         0.1277
     48 H22         5.7867   -5.8509    2.3788 H         1 <0>         0.1464
     49 H23         6.8337   -1.8983    3.5984 H         1 <0>         0.1482
     50 H24         5.0066   -0.9902    2.2204 H         1 <0>         0.1431
     51 H25         5.7294   -1.7555   -0.2894 H         1 <0>         0.0676
     52 H26         5.2334   -1.3228   -1.9432 H         1 <0>         0.0779
     53 H27         4.6481   -0.3677   -0.5599 H         1 <0>         0.0771
     54 H28         1.5227   -0.0029   -1.7201 H         1 <0>         0.3831
     55 N1          2.0744   -3.2322    0.8052 N.4       1 <0>        -0.5139
     56 H29         1.8011   -3.2965    1.7928 H         1 <0>         0.4349
     57 H30         2.3120   -4.1674    0.4543 H         1 <0>         0.4303
@<TRIPOS>BOND
     1    1    2 1
     2    1   31 1
     3    1   32 1
     4    1   33 1
     5    2    3 1
     6    2   34 1
     7    2   35 1
     8    3    4 1
     9    3   36 1
    10    3   37 1
    11    4    5 1
    12    4   38 1
    13    4   39 1
    14    5   12 1
    15    5    6 1
    16    5   30 1
    17    6    7 1
    18    6    8 1
    19    6   29 1
    20    8    9 1
    21    8   22 1
    22    8   55 1
    23   10   11 1
    24   10   12 1
    25   10   15 1
    26   10   55 1
    27   12   13 1
    28   12   14 1
    29   14   40 1
    30   14   41 1
    31   14   42 1
    32   15   20 ar
    33   15   16 ar
    34   16   17 ar
    35   16   43 1
    36   17   18 ar
    37   17   44 1
    38   18   19 ar
    39   18   21 1
    40   19   20 ar
    41   19   45 1
    42   20   46 1
    43   22   27 ar
    44   22   23 ar
    45   23   24 ar
    46   23   47 1
    47   24   25 ar
    48   24   48 1
    49   25   26 ar
    50   25   28 1
    51   26   27 ar
    52   26   49 1
    53   27   50 1
    54   29   51 1
    55   29   52 1
    56   29   53 1
    57   30   54 1
    58   55   56 1
    59   55   57 1
