@<TRIPOS>MOLECULE
ZINC08751007
   59    61     0     0     0
SMALL
USER_CHARGES
N-[2-(4-methoxyphenyl)-2-(1-piperidyl)ethyl]-1,3-dimethyl-2,4-dioxo-pyrimidine-5-sulfonamide
@<TRIPOS>ATOM
      1 C1         -4.0005    2.7228    8.2372 C.3       1 <0>         0.0545
      2 N1         -2.9412    3.4350    7.5182 N.am      1 <0>        -0.5235
      3 C2         -2.9704    3.4928    6.1514 C.2       1 <0>         0.3213
      4 C3         -1.9913    4.1449    5.4886 C.2       1 <0>        -0.8707
      5 C4         -0.9559    4.7669    6.2270 C.2       1 <0>         0.5889
      6 O1         -0.0647    5.3651    5.6517 O.2       1 <0>        -0.4898
      7 N2         -0.9659    4.6913    7.5732 N.am      1 <0>        -0.5504
      8 C5         -1.9515    4.0304    8.2083 C.2       1 <0>         0.6906
      9 O2         -1.9472    3.9702    9.4226 O.2       1 <0>        -0.5062
     10 C6          0.1007    5.3308    8.3478 C.3       1 <0>         0.0744
     11 S1         -2.0061    4.2267    3.7286 S.o2      1 <0>         2.7241
     12 O3         -1.5741    5.5346    3.3792 O.2       1 <0>        -0.9114
     13 O4         -3.2569    3.6998    3.3080 O.2       1 <0>        -0.9506
     14 N3         -0.8440    3.1822    3.1801 N.pl3     1 <0>        -1.1314
     15 C7         -0.9857    1.7424    3.4103 C.3       1 <0>         0.0920
     16 C8         -0.0012    0.9839    2.5179 C.3       1 <0>         0.0863
     17 H1          1.0159    1.3023    2.7464 H         1 <0>         0.1509
     18 C9         -0.1328   -0.4961    2.7695 C.ar      1 <0>        -0.1856
     19 C10        -1.2757   -1.1649    2.3717 C.ar      1 <0>        -0.0768
     20 C11        -1.3963   -2.5227    2.5961 C.ar      1 <0>        -0.2018
     21 C12        -0.3745   -3.2130    3.2317 C.ar      1 <0>         0.1662
     22 C13         0.7689   -2.5386    3.6348 C.ar      1 <0>        -0.1439
     23 C14         0.8873   -1.1819    3.4026 C.ar      1 <0>        -0.0406
     24 O5         -0.4935   -4.5475    3.4593 O.3       1 <0>        -0.3059
     25 C15        -1.6981   -5.1761    3.0171 C.3       1 <0>         0.0208
     26 C16        -1.7230    1.5735    0.9216 C.3       1 <0>        -0.0279
     27 C17        -1.9683    2.0063   -0.5257 C.3       1 <0>        -0.1469
     28 C18        -1.5402    0.8794   -1.4698 C.3       1 <0>        -0.1381
     29 C19        -0.0659    0.5487   -1.2216 C.3       1 <0>        -0.1467
     30 C20         0.1242    0.1581    0.2458 C.3       1 <0>        -0.0063
     31 H2         -3.8167    2.7848    9.3098 H         1 <0>         0.1164
     32 H3         -4.9644    3.1766    8.0069 H         1 <0>         0.0968
     33 H4         -4.0085    1.6771    7.9298 H         1 <0>         0.0950
     34 H5         -3.7707    3.0158    5.6051 H         1 <0>         0.2029
     35 H6         -0.1864    6.3553    8.5844 H         1 <0>         0.0822
     36 H7          0.2613    4.7757    9.2720 H         1 <0>         0.0971
     37 H8          1.0206    5.3370    7.7632 H         1 <0>         0.1001
     38 H9         -0.0694    3.5237    2.7064 H         1 <0>         0.4245
     39 H10        -2.0038    1.4347    3.1716 H         1 <0>         0.1101
     40 H11        -0.7744    1.5191    4.4561 H         1 <0>         0.1122
     41 H12        -2.0731   -0.6261    1.8816 H         1 <0>         0.1307
     42 H13        -2.2876   -3.0454    2.2817 H         1 <0>         0.1422
     43 H14         1.5660   -3.0738    4.1295 H         1 <0>         0.1459
     44 H15         1.7772   -0.6565    3.7163 H         1 <0>         0.1421
     45 H16        -1.7975   -5.0530    1.9386 H         1 <0>         0.0621
     46 H17        -1.6640   -6.2382    3.2599 H         1 <0>         0.1117
     47 H18        -2.5518   -4.7167    3.5154 H         1 <0>         0.0626
     48 H19        -2.0135    2.3793    1.5958 H         1 <0>         0.1346
     49 H20        -2.3158    0.6854    1.1404 H         1 <0>         0.1334
     50 H21        -3.0282    2.2172   -0.6678 H         1 <0>         0.1149
     51 H22        -1.3862    2.9024   -0.7412 H         1 <0>         0.0899
     52 H23        -2.1487   -0.0049   -1.2809 H         1 <0>         0.0805
     53 H24        -1.6726    1.1999   -2.5032 H         1 <0>         0.0950
     54 H25         0.2334   -0.2819   -1.8610 H         1 <0>         0.1112
     55 H26         0.5461    1.4218   -1.4480 H         1 <0>         0.0877
     56 H27        -0.4773   -0.7233    0.4679 H         1 <0>         0.1356
     57 H28         1.1755   -0.0640    0.4293 H         1 <0>         0.1288
     58 N4         -0.2824    1.2934    1.1009 N.4       1 <0>        -0.3900
     59 H29         0.2549    2.1248    0.8282 H         1 <0>         0.4285
@<TRIPOS>BOND
     1    1    2 1
     2    1   31 1
     3    1   32 1
     4    1   33 1
     5    2    8 am
     6    2    3 1
     7    3    4 2
     8    3   34 1
     9    4    5 1
    10    4   11 1
    11    5    6 2
    12    5    7 am
    13    7    8 am
    14    7   10 1
    15    8    9 2
    16   10   35 1
    17   10   36 1
    18   10   37 1
    19   11   12 2
    20   11   13 2
    21   11   14 1
    22   14   15 1
    23   14   38 1
    24   15   16 1
    25   15   39 1
    26   15   40 1
    27   16   17 1
    28   16   18 1
    29   16   58 1
    30   18   23 ar
    31   18   19 ar
    32   19   20 ar
    33   19   41 1
    34   20   21 ar
    35   20   42 1
    36   21   22 ar
    37   21   24 1
    38   22   23 ar
    39   22   43 1
    40   23   44 1
    41   24   25 1
    42   25   45 1
    43   25   46 1
    44   25   47 1
    45   26   27 1
    46   26   48 1
    47   26   49 1
    48   26   58 1
    49   27   28 1
    50   27   50 1
    51   27   51 1
    52   28   29 1
    53   28   52 1
    54   28   53 1
    55   29   30 1
    56   29   54 1
    57   29   55 1
    58   30   56 1
    59   30   57 1
    60   30   58 1
    61   58   59 1
