@<TRIPOS>MOLECULE
ZINC04115162
   28    29     0     0     0
SMALL
USER_CHARGES

@<TRIPOS>ATOM
      1 C1         -0.0167    1.3780    0.0096 C.ar      1 <0>        -0.0585
      2 C2          1.1704    2.0863    0.0021 C.ar      1 <0>        -0.1443
      3 C3          2.3786    1.4112   -0.0131 C.ar      1 <0>         0.1348
      4 C4          2.3967    0.0257   -0.0207 C.ar      1 <0>        -0.1276
      5 C5          1.2079   -0.6802   -0.0132 C.ar      1 <0>        -0.0618
      6 C6          0.0021   -0.0041    0.0020 C.ar      1 <0>        -0.1040
      7 C7         -1.2930   -0.7746    0.0103 C.3       1 <0>         0.0499
      8 H1         -2.1187   -0.0631    0.0220 H         1 <0>         0.1207
      9 C8         -1.3531   -1.6080    1.2835 C.3       1 <0>         0.0063
     10 H2         -1.4150   -0.9486    2.1493 H         1 <0>         0.1479
     11 C9         -2.5852   -2.4951    1.2300 C.2       1 <0>         0.1733
     12 N1         -3.5530   -2.3796    2.0802 N.2       1 <0>        -0.5807
     13 S1         -2.6130   -3.6986   -0.0719 S.3       1 <0>         0.1099
     14 C10        -1.9233   -2.7885   -1.4189 C.2       1 <0>         0.2311
     15 C11        -1.3756   -1.5748   -1.2399 C.2       1 <0>        -0.2165
     16 C12        -0.8007   -0.9737   -2.4057 C.1       1 <0>         0.2553
     17 N2         -0.3447   -0.4969   -3.3304 N.1       1 <0>        -0.4284
     18 N3         -1.9452   -3.3365   -2.6794 N.pl3     1 <0>        -0.8226
     19 C13        -0.1448   -2.4426    1.3845 C.1       1 <0>         0.2008
     20 N4          0.7877   -3.0867    1.4623 N.1       1 <0>        -0.3783
     21 Br1         4.0460   -0.8989   -0.0421 Br        1 <0>        -0.0203
     22 F1          3.5393    2.1026   -0.0209 F         1 <0>        -0.1204
     23 H3         -0.9593    1.9048    0.0260 H         1 <0>         0.1470
     24 H4          1.1551    3.1662    0.0077 H         1 <0>         0.1502
     25 H5          1.2213   -1.7601   -0.0191 H         1 <0>         0.1496
     26 H6         -3.5060   -1.7100    2.7805 H         1 <0>         0.3617
     27 H7         -2.3362   -4.2129   -2.8205 H         1 <0>         0.4133
     28 H8         -1.5696   -2.8467   -3.4277 H         1 <0>         0.4117
@<TRIPOS>BOND
     1    1    6 ar
     2    1    2 ar
     3    1   23 1
     4    2    3 ar
     5    2   24 1
     6    3    4 ar
     7    3   22 1
     8    4    5 ar
     9    4   21 1
    10    5    6 ar
    11    5   25 1
    12    6    7 1
    13    7    8 1
    14    7   15 1
    15    7    9 1
    16    9   10 1
    17    9   11 1
    18    9   19 1
    19   11   12 2
    20   11   13 1
    21   12   26 1
    22   13   14 1
    23   14   15 2
    24   14   18 1
    25   15   16 1
    26   16   17 3
    27   18   27 1
    28   18   28 1
    29   19   20 3
