@<TRIPOS>MOLECULE
ZINC12249691
   40    44     0     0     0
SMALL
USER_CHARGES
4-[3-amino-6-(1,3-benzodioxol-5-yl)thieno[5,4-b]pyridin-2-yl]benzonitrile
@<TRIPOS>ATOM
      1 C1         -3.8490   -2.4521    0.3662 C.ar      1 <0>        -0.0602
      2 C2         -3.6587   -1.1056    0.4831 C.ar      1 <0>        -0.1087
      3 C3         -2.6129   -0.4840   -0.2090 C.ar      1 <0>         0.0486
      4 C4         -1.7661   -1.2424   -1.0255 C.ar      1 <0>        -0.1156
      5 C5         -1.9532   -2.5898   -1.1377 C.ar      1 <0>        -0.0612
      6 C6         -2.9987   -3.2111   -0.4456 C.ar      1 <0>        -0.0312
      7 C7         -3.1988   -4.6237   -0.5686 C.1       1 <0>         0.2501
      8 N1         -3.3576   -5.7443   -0.6661 N.1       1 <0>        -0.4122
      9 C8         -2.4074    0.9689   -0.0829 C.2       1 <0>        -0.2324
     10 C9         -1.2453    1.6389    0.1514 C.2       1 <0>         0.2283
     11 C10        -1.2804    3.0895    0.2438 C.ar      1 <0>        -0.1702
     12 C11        -0.2084    3.9897    0.4726 C.ar      1 <0>        -0.0152
     13 C12        -0.4610    5.3275    0.5167 C.ar      1 <0>        -0.1715
     14 C13        -1.7606    5.8095    0.3332 C.ar      1 <0>         0.2213
     15 N2         -2.7616    4.9650    0.1139 N.ar      1 <0>        -0.4434
     16 C14        -2.5590    3.6684    0.0642 C.ar      1 <0>         0.1180
     17 S1         -3.6203    2.2693   -0.1999 S.3       1 <0>         0.1189
     18 C15        -2.0216    7.2673    0.3830 C.ar      1 <0>        -0.0484
     19 C16        -0.9603    8.1632    0.5087 C.ar      1 <0>        -0.0799
     20 C17        -1.2044    9.5199    0.5550 C.ar      1 <0>        -0.1039
     21 C18        -2.5042    9.9981    0.4759 C.ar      1 <0>         0.0514
     22 C19        -3.5692    9.1070    0.3497 C.ar      1 <0>         0.0273
     23 C20        -3.3286    7.7463    0.2986 C.ar      1 <0>        -0.0560
     24 O1         -4.7311    9.8217    0.2927 O.3       1 <0>        -0.3051
     25 C21        -4.3378   11.1694   -0.0266 C.3       1 <0>         0.2121
     26 O2         -3.0007   11.2693    0.4978 O.3       1 <0>        -0.3059
     27 N3         -0.0413    0.9442    0.3060 N.pl3     1 <0>        -0.8574
     28 H1         -4.6561   -2.9318    0.8999 H         1 <0>         0.1372
     29 H2         -4.3152   -0.5198    1.1094 H         1 <0>         0.1380
     30 H3         -0.9618   -0.7622   -1.5631 H         1 <0>         0.1355
     31 H4         -1.2970   -3.1758   -1.7642 H         1 <0>         0.1366
     32 H5          0.7958    3.6184    0.6145 H         1 <0>         0.1392
     33 H6          0.3480    6.0205    0.6949 H         1 <0>         0.1482
     34 H7          0.0530    7.7946    0.5702 H         1 <0>         0.1458
     35 H8         -0.3811   10.2120    0.6527 H         1 <0>         0.1436
     36 H9         -4.1522    7.0551    0.1971 H         1 <0>         0.1496
     37 H10        -4.3383   11.3230   -1.1058 H         1 <0>         0.0880
     38 H11        -4.9960   11.8867    0.4636 H         1 <0>         0.1353
     39 H12        -0.0413   -0.0253    0.3380 H         1 <0>         0.4062
     40 H13         0.7943    1.4317    0.3773 H         1 <0>         0.3991
@<TRIPOS>BOND
     1    1    6 ar
     2    1    2 ar
     3    1   28 1
     4    2    3 ar
     5    2   29 1
     6    3    4 ar
     7    3    9 1
     8    4    5 ar
     9    4   30 1
    10    5    6 ar
    11    5   31 1
    12    6    7 1
    13    7    8 3
    14    9   17 1
    15    9   10 2
    16   10   11 1
    17   10   27 1
    18   11   16 ar
    19   11   12 ar
    20   12   13 ar
    21   12   32 1
    22   13   14 ar
    23   13   33 1
    24   14   15 ar
    25   14   18 1
    26   15   16 ar
    27   16   17 1
    28   18   23 ar
    29   18   19 ar
    30   19   20 ar
    31   19   34 1
    32   20   21 ar
    33   20   35 1
    34   21   26 1
    35   21   22 ar
    36   22   23 ar
    37   22   24 1
    38   23   36 1
    39   24   25 1
    40   25   26 1
    41   25   37 1
    42   25   38 1
    43   27   39 1
    44   27   40 1
