@<TRIPOS>MOLECULE
ZINC40005192
   42    44     0     0     0
SMALL
USER_CHARGES

@<TRIPOS>ATOM
      1 C1         -0.1856    1.6984    0.5435 C.3       1 <0>        -0.1615
      2 C2         -0.0542    0.2150    0.1925 C.3       1 <0>         0.1399
      3 H1          0.4647    0.0935   -0.7583 H         1 <0>         0.0805
      4 C3         -1.4423   -0.4511    0.1380 C.3       1 <0>        -0.0659
      5 C4         -1.3799   -1.5126    1.2139 C.2       1 <0>        -0.2378
      6 C5         -0.1757   -1.4704    1.7880 C.2       1 <0>         0.2114
      7 N1          0.6535   -0.5053    1.2603 N.pl3     1 <0>        -0.5750
      8 C6          1.9627   -0.2493    1.6743 C.ar      1 <0>         0.1825
      9 C7          3.0274   -0.5190    0.8231 C.ar      1 <0>        -0.1199
     10 C8          4.3205   -0.2648    1.2355 C.ar      1 <0>        -0.0713
     11 C9          4.5566    0.2579    2.4945 C.ar      1 <0>        -0.1038
     12 C10         3.4988    0.5271    3.3445 C.ar      1 <0>        -0.0713
     13 C11         2.2029    0.2810    2.9359 C.ar      1 <0>        -0.1189
     14 I1          6.5203    0.6418    3.1154 I         1 <0>        -0.0372
     15 C12         0.2384   -2.3919    2.9062 C.3       1 <0>        -0.1076
     16 C13        -2.4617   -2.4337    1.5674 C.2       1 <0>         0.1494
     17 N2         -2.2552   -3.3745    2.4413 N.2       1 <0>        -0.2531
     18 N3         -3.2904   -4.2559    2.7795 N.pl3     1 <0>        -0.6360
     19 C14        -3.0578   -5.3157    3.7639 C.3       1 <0>         0.2139
     20 H2         -2.0073   -5.6009    3.7070 H         1 <0>         0.1752
     21 C15        -3.8936   -6.5185    3.3659 C.2       1 <0>         0.5094
     22 O1         -3.7677   -7.0545    2.2859 O.2       1 <0>        -0.4386
     23 N4         -4.7877   -6.9613    4.2824 N.am      1 <0>        -0.6847
     24 C16        -4.8949   -6.3388    5.4671 C.2       1 <0>         0.6022
     25 O2         -5.7073   -6.7645    6.2629 O.2       1 <0>        -0.4403
     26 N5         -4.1630   -5.2793    5.8243 N.2       1 <0>        -0.1682
     27 N6         -3.3067   -4.7568    5.1031 N.2       1 <0>        -0.0241
     28 H3          0.8069    2.1397    0.6339 H         1 <0>         0.0582
     29 H4         -0.7404    2.2100   -0.2430 H         1 <0>         0.0722
     30 H5         -0.7170    1.8022    1.4895 H         1 <0>         0.0634
     31 H6         -2.2238    0.2749    0.3621 H         1 <0>         0.0810
     32 H7         -1.6102   -0.9058   -0.8383 H         1 <0>         0.0785
     33 H8          2.8438   -0.9273   -0.1597 H         1 <0>         0.1334
     34 H9          5.1485   -0.4746    0.5745 H         1 <0>         0.1340
     35 H10         3.6865    0.9344    4.3270 H         1 <0>         0.1345
     36 H11         1.3772    0.4962    3.5980 H         1 <0>         0.1345
     37 H12         0.2346   -3.4216    2.5488 H         1 <0>         0.0878
     38 H13         1.2411   -2.1277    3.2422 H         1 <0>         0.0595
     39 H14        -0.4608   -2.2929    3.7365 H         1 <0>         0.0917
     40 H15        -3.4312   -2.3318    1.1025 H         1 <0>         0.1106
     41 H16        -4.1611   -4.1644    2.3620 H         1 <0>         0.3838
     42 H17        -5.3490   -7.7269    4.0832 H         1 <0>         0.4278
@<TRIPOS>BOND
     1    1    2 1
     2    1   28 1
     3    1   29 1
     4    1   30 1
     5    2    3 1
     6    2    7 1
     7    2    4 1
     8    4    5 1
     9    4   31 1
    10    4   32 1
    11    5    6 2
    12    5   16 1
    13    6    7 1
    14    6   15 1
    15    7    8 1
    16    8   13 ar
    17    8    9 ar
    18    9   10 ar
    19    9   33 1
    20   10   11 ar
    21   10   34 1
    22   11   12 ar
    23   11   14 1
    24   12   13 ar
    25   12   35 1
    26   13   36 1
    27   15   37 1
    28   15   38 1
    29   15   39 1
    30   16   17 2
    31   16   40 1
    32   17   18 1
    33   18   19 1
    34   18   41 1
    35   19   20 1
    36   19   27 1
    37   19   21 1
    38   21   22 2
    39   21   23 am
    40   23   24 am
    41   23   42 1
    42   24   25 2
    43   24   26 1
    44   26   27 2
