@<TRIPOS>MOLECULE
ZINC63492804
   57    61     0     0     0
SMALL
USER_CHARGES

@<TRIPOS>ATOM
      1 C1         -0.0163    1.3482    0.0095 C.ar      1 <0>        -0.1447
      2 C2          1.1658    2.1014    0.0022 C.ar      1 <0>         0.0562
      3 C3          2.3912    1.5352   -0.0125 C.ar      1 <0>        -0.2088
      4 C4          2.5288    0.1198   -0.0218 C.ar      1 <0>         0.3306
      5 N1          3.5868   -0.6543   -0.0369 N.pl3     1 <0>        -0.5812
      6 C5          3.1432   -2.0528   -0.0408 C.3       1 <0>         0.0625
      7 C6          1.6315   -2.0084   -0.0255 C.2       1 <0>         0.0616
      8 C7          1.2951   -0.6984   -0.0144 C.ar      1 <0>        -0.1681
      9 C8          0.0021   -0.0041    0.0020 C.ar      1 <0>        -0.0212
     10 C9          0.6905   -3.1856   -0.0239 C.3       1 <0>        -0.1051
     11 C10         0.4565   -3.6534   -1.4617 C.3       1 <0>         0.1241
     12 H1          1.4151   -3.8639   -1.9359 H         1 <0>         0.1444
     13 C11        -0.3847   -4.9037   -1.4525 C.2       1 <0>         0.5115
     14 O1         -1.4588   -4.9161   -2.0157 O.2       1 <0>        -0.4971
     15 N2          0.0565   -6.0081   -0.8185 N.am      1 <0>        -0.7156
     16 C12        -0.7613   -7.2236   -0.8096 C.3       1 <0>         0.1106
     17 C13        -0.0358   -8.3207   -0.0280 C.3       1 <0>         0.0680
     18 H2          0.9646   -8.4653   -0.4360 H         1 <0>         0.0894
     19 C14        -0.8327   -9.6401   -0.1151 C.3       1 <0>        -0.1494
     20 C15        -0.6759  -10.2151    1.3191 C.3       1 <0>        -0.1568
     21 C16        -0.6611   -8.9126    2.1582 C.3       1 <0>         0.0492
     22 O2          0.0513   -7.9559    1.3544 O.3       1 <0>        -0.3799
     23 N3         -0.2382   -2.6029   -2.2101 N.am      1 <0>        -0.5779
     24 C17         0.3404   -2.0720   -3.3062 C.2       1 <0>         0.5418
     25 O3          1.4832   -2.3593   -3.5916 O.2       1 <0>        -0.4802
     26 C18        -0.4366   -1.1252   -4.1705 C.3       1 <0>        -0.1196
     27 H3         -0.8700   -1.6998   -4.9891 H         1 <0>         0.1783
     28 C19         0.4296   -0.0599   -4.7663 C.2       1 <0>        -0.0949
     29 C20        -0.0318    1.1774   -4.9540 C.2       1 <0>        -0.1346
     30 C21        -1.3429    1.5441   -4.5721 C.2       1 <0>        -0.0127
     31 C22        -2.0965    0.7210   -3.7965 C.2       1 <0>        -0.1620
     32 C23        -1.5646   -0.5077   -3.3956 C.2       1 <0>         0.3061
     33 N4         -2.0305   -1.0954   -2.3152 N.2       1 <0>        -0.5316
     34 C24        -1.4468   -2.1836   -1.7993 C.2       1 <0>         0.6579
     35 O4         -2.0250   -2.8093   -0.9301 O.2       1 <0>        -0.4468
     36 H4         -0.9665    1.8612    0.0259 H         1 <0>         0.1599
     37 H5          1.0933    3.1789    0.0083 H         1 <0>         0.1631
     38 H6          3.2717    2.1606   -0.0175 H         1 <0>         0.1625
     39 H7          3.4952   -2.5561   -0.9413 H         1 <0>         0.1761
     40 H8          3.5129   -2.5667    0.8465 H         1 <0>         0.1784
     41 H9         -0.9210   -0.5647    0.0081 H         1 <0>         0.1554
     42 H10         1.1268   -3.9987    0.5563 H         1 <0>         0.1366
     43 H11        -0.2596   -2.8905    0.4214 H         1 <0>         0.1321
     44 H12         0.9155   -5.9982   -0.3681 H         1 <0>         0.4025
     45 H13        -1.7199   -7.0130   -0.3354 H         1 <0>         0.0796
     46 H14        -0.9280   -7.5569   -1.8339 H         1 <0>         0.0831
     47 H15        -1.8808   -9.4459   -0.3427 H         1 <0>         0.0840
     48 H16        -0.3923  -10.3113   -0.8524 H         1 <0>         0.0895
     49 H17        -1.5254  -10.8441    1.5852 H         1 <0>         0.0891
     50 H18         0.2622  -10.7603    1.4234 H         1 <0>         0.0819
     51 H19        -1.6792   -8.5696    2.3424 H         1 <0>         0.0641
     52 H20        -0.1396   -9.0760    3.1013 H         1 <0>         0.0897
     53 H21         1.4448   -0.2968   -5.0485 H         1 <0>         0.1490
     54 H22         0.6113    1.9168   -5.4081 H         1 <0>         0.1469
     55 H23        -1.7502    2.4889   -4.9008 H         1 <0>         0.1522
     56 H24        -3.0862    1.0213   -3.4854 H         1 <0>         0.1634
     57 H25         4.5087   -0.3528   -0.0446 H         1 <0>         0.4567
@<TRIPOS>BOND
     1    1    9 ar
     2    1    2 ar
     3    1   36 1
     4    2    3 ar
     5    2   37 1
     6    3    4 ar
     7    3   38 1
     8    4    8 ar
     9    4    5 2
    10    5    6 1
    11    5   57 1
    12    6    7 1
    13    6   39 1
    14    6   40 1
    15    7    8 2
    16    7   10 1
    17    8    9 ar
    18    9   41 1
    19   10   11 1
    20   10   42 1
    21   10   43 1
    22   11   12 1
    23   11   13 1
    24   11   23 1
    25   13   14 2
    26   13   15 am
    27   15   16 1
    28   15   44 1
    29   16   17 1
    30   16   45 1
    31   16   46 1
    32   17   18 1
    33   17   22 1
    34   17   19 1
    35   19   20 1
    36   19   47 1
    37   19   48 1
    38   20   21 1
    39   20   49 1
    40   20   50 1
    41   21   22 1
    42   21   51 1
    43   21   52 1
    44   23   34 am
    45   23   24 am
    46   24   25 2
    47   24   26 1
    48   26   27 1
    49   26   32 1
    50   26   28 1
    51   28   29 2
    52   28   53 1
    53   29   30 1
    54   29   54 1
    55   30   31 2
    56   30   55 1
    57   31   32 1
    58   31   56 1
    59   32   33 2
    60   33   34 1
    61   34   35 2
