@<TRIPOS>MOLECULE
ZINC65149248
   47    50     0     0     0
SMALL
USER_CHARGES

@<TRIPOS>ATOM
      1 C1         -0.0699    1.5375    0.0643 C.3       1 <0>        -0.1457
      2 C2         -0.0344    0.0081    0.0376 C.3       1 <0>        -0.0366
      3 C3         -1.4429   -0.5274    0.0518 C.2       1 <0>         0.2260
      4 N1         -2.4864    0.2164    0.0764 N.2       1 <0>        -0.2667
      5 N2         -3.6488   -0.5687    0.0840 N.pl3     1 <0>        -0.6699
      6 C4         -3.1753   -1.9642    0.0599 C.3       1 <0>         0.3807
      7 H1         -3.5024   -2.4942    0.9544 H         1 <0>         0.1174
      8 O1         -1.7449   -1.8454    0.0343 O.3       1 <0>        -0.3222
      9 C5         -3.6670   -2.6676   -1.1789 C.2       1 <0>        -0.1871
     10 C6         -3.9594   -3.9790   -1.3551 C.2       1 <0>        -0.1193
     11 C7         -4.4016   -4.4076   -2.5968 C.2       1 <0>         0.0904
     12 C8         -4.5274   -3.4965   -3.5981 C.2       1 <0>        -0.1672
     13 S1         -4.0221   -1.9869   -2.7904 S.3       1 <0>         0.1230
     14 C9         -4.9813   -3.7059   -5.0198 C.3       1 <0>        -0.0737
     15 N3         -4.7144   -5.7618   -2.8173 N.am      1 <0>        -0.6477
     16 C10        -4.0164   -6.7261   -2.1855 C.2       1 <0>         0.5192
     17 O2         -3.1695   -6.4267   -1.3702 O.2       1 <0>        -0.5157
     18 C11        -4.2880   -8.1765   -2.4918 C.3       1 <0>        -0.1137
     19 C12        -3.3810   -9.0444   -1.6580 C.2       1 <0>         0.0826
     20 C13        -3.6733   -9.6200   -0.4694 C.ar      1 <0>        -0.1587
     21 C14        -4.8765   -9.6097    0.3712 C.ar      1 <0>        -0.0136
     22 C15        -4.8685  -10.2962    1.5364 C.ar      1 <0>        -0.1490
     23 C16        -3.7425  -11.0152    1.9606 C.ar      1 <0>         0.0535
     24 C17        -2.6006  -11.0719    1.2429 C.ar      1 <0>        -0.2083
     25 C18        -2.4977  -10.3872    0.0007 C.ar      1 <0>         0.3305
     26 N4         -1.5169  -10.2897   -0.8637 N.pl3     1 <0>        -0.5806
     27 C19        -1.9620   -9.4535   -1.9840 C.3       1 <0>         0.0639
     28 H2          0.9489    1.9248    0.0540 H         1 <0>         0.0706
     29 H3         -0.6068    1.9038   -0.8108 H         1 <0>         0.0646
     30 H4         -0.5772    1.8734    0.9687 H         1 <0>         0.0654
     31 H5          0.4729   -0.3278   -0.8668 H         1 <0>         0.0960
     32 H6          0.5025   -0.3582    0.9126 H         1 <0>         0.0976
     33 H7         -4.5679   -0.2593    0.1018 H         1 <0>         0.4501
     34 H8         -3.8493   -4.6796   -0.5405 H         1 <0>         0.1507
     35 H9         -6.0622   -3.5785   -5.0786 H         1 <0>         0.0850
     36 H10        -4.4937   -2.9775   -5.6678 H         1 <0>         0.0833
     37 H11        -4.7161   -4.7131   -5.3412 H         1 <0>         0.0781
     38 H12        -5.4323   -6.0011   -3.4241 H         1 <0>         0.4168
     39 H13        -5.3273   -8.4084   -2.2593 H         1 <0>         0.1402
     40 H14        -4.1011   -8.3658   -3.5488 H         1 <0>         0.1436
     41 H15        -5.7550   -9.0617    0.0640 H         1 <0>         0.1583
     42 H16        -5.7527  -10.2900    2.1565 H         1 <0>         0.1580
     43 H17        -3.7904  -11.5452    2.9003 H         1 <0>         0.1615
     44 H18        -1.7606  -11.6400    1.6143 H         1 <0>         0.1614
     45 H19        -1.9393  -10.0233   -2.9130 H         1 <0>         0.1747
     46 H20        -1.3266   -8.5718   -2.0677 H         1 <0>         0.1768
     47 H21        -0.6441  -10.7044   -0.7786 H         1 <0>         0.4564
@<TRIPOS>BOND
     1    1    2 1
     2    1   28 1
     3    1   29 1
     4    1   30 1
     5    2    3 1
     6    2   31 1
     7    2   32 1
     8    3    8 1
     9    3    4 2
    10    4    5 1
    11    5    6 1
    12    5   33 1
    13    6    7 1
    14    6    8 1
    15    6    9 1
    16    9   13 1
    17    9   10 2
    18   10   11 1
    19   10   34 1
    20   11   12 2
    21   11   15 1
    22   12   13 1
    23   12   14 1
    24   14   35 1
    25   14   36 1
    26   14   37 1
    27   15   16 am
    28   15   38 1
    29   16   17 2
    30   16   18 1
    31   18   19 1
    32   18   39 1
    33   18   40 1
    34   19   27 1
    35   19   20 2
    36   20   25 ar
    37   20   21 ar
    38   21   22 ar
    39   21   41 1
    40   22   23 ar
    41   22   42 1
    42   23   24 ar
    43   23   43 1
    44   24   25 ar
    45   24   44 1
    46   25   26 2
    47   26   27 1
    48   26   47 1
    49   27   45 1
    50   27   46 1
