@<TRIPOS>MOLECULE
ZINC05427348
   46    48     0     0     0
SMALL
USER_CHARGES
10-(2,3-dimethylphenyl)-4-isopropyl-2,4,8,10-tetrazabicyclo[4.4.0]dec-11-ene-7,9-dione
@<TRIPOS>ATOM
      1 C1          1.4760    9.4608   -1.9176 C.3       1 <0>        -0.1239
      2 C2          1.6862    8.9038   -0.5332 C.ar      1 <0>        -0.0706
      3 C3          2.9087    9.0573    0.0950 C.ar      1 <0>        -0.0828
      4 C4          3.1053    8.5476    1.3651 C.ar      1 <0>        -0.1059
      5 C5          2.0805    7.8832    2.0106 C.ar      1 <0>        -0.1044
      6 C6          0.8522    7.7275    1.3826 C.ar      1 <0>         0.0758
      7 C7          0.6596    8.2356    0.1047 C.ar      1 <0>        -0.0459
      8 C8         -0.6702    8.0633   -0.5830 C.3       1 <0>        -0.1218
      9 N1         -0.1893    7.0541    2.0347 N.am      1 <0>        -0.4810
     10 C9         -0.3238    5.6888    1.8796 C.2       1 <0>         0.4306
     11 C10        -1.3351    5.0471    2.5266 C.2       1 <0>        -0.3758
     12 C11        -2.2204    5.7914    3.3267 C.2       1 <0>         0.5786
     13 O1         -3.1330    5.2333    3.9116 O.2       1 <0>        -0.5032
     14 N2         -2.0561    7.1227    3.4447 N.am      1 <0>        -0.6575
     15 H1         -2.6872    7.6532    4.0105 H         1 <0>         0.4512
     16 C12        -1.0477    7.7432    2.8057 C.2       1 <0>         0.7041
     17 O2         -0.9113    8.9452    2.9272 O.2       1 <0>        -0.4916
     18 C13        -1.5324    3.5582    2.4096 C.3       1 <0>         0.0928
     19 C14         0.6175    3.5940    1.3350 C.3       1 <0>         0.1787
     20 N3          0.5640    5.0341    1.0696 N.pl3     1 <0>        -0.6241
     21 C15        -0.7288    1.5792    1.2668 C.3       1 <0>         0.0333
     22 C16        -0.0127    1.0858    0.0080 C.3       1 <0>        -0.1852
     23 C17         0.0111    1.0724    2.5063 C.3       1 <0>        -0.1876
     24 H2          1.7455    8.7070   -2.6573 H         1 <0>         0.0793
     25 H3          0.4288    9.7355   -2.0436 H         1 <0>         0.0742
     26 H4          2.1018   10.3429   -2.0531 H         1 <0>         0.0776
     27 H5          3.7113    9.5767   -0.4074 H         1 <0>         0.1390
     28 H6          4.0610    8.6694    1.8533 H         1 <0>         0.1409
     29 H7          2.2348    7.4850    3.0025 H         1 <0>         0.1301
     30 H8         -1.3139    8.9106   -0.3468 H         1 <0>         0.0817
     31 H9         -0.5179    8.0122   -1.6611 H         1 <0>         0.0838
     32 H10        -1.1408    7.1424   -0.2385 H         1 <0>         0.0575
     33 H11        -2.5886    3.3432    2.2476 H         1 <0>         0.1500
     34 H12        -1.1996    3.0741    3.3278 H         1 <0>         0.1431
     35 H13         1.0366    3.4209    2.3262 H         1 <0>         0.1330
     36 H14         1.2388    3.1069    0.5835 H         1 <0>         0.1686
     37 H15         1.4824    5.4474    1.1312 H         1 <0>         0.4162
     38 H16        -1.7514    1.2020    1.2746 H         1 <0>         0.1487
     39 H17         0.0021   -0.0041    0.0020 H         1 <0>         0.1120
     40 H18         1.0099    1.4631    0.0003 H         1 <0>         0.0801
     41 H19        -0.5399    1.4469   -0.8751 H         1 <0>         0.0852
     42 H20         1.0337    1.4497    2.4986 H         1 <0>         0.0798
     43 H21        -0.4990    1.4239    3.4031 H         1 <0>         0.0853
     44 H22         0.0259   -0.0175    2.5003 H         1 <0>         0.1119
     45 N4         -0.7554    3.0611    1.2602 N.4       1 <0>        -0.4003
     46 H23        -1.1955    3.3838    0.3905 H         1 <0>         0.4385
@<TRIPOS>BOND
     1    1    2 1
     2    1   24 1
     3    1   25 1
     4    1   26 1
     5    2    7 ar
     6    2    3 ar
     7    3    4 ar
     8    3   27 1
     9    4    5 ar
    10    4   28 1
    11    5    6 ar
    12    5   29 1
    13    6    7 ar
    14    6    9 1
    15    7    8 1
    16    8   30 1
    17    8   31 1
    18    8   32 1
    19    9   16 am
    20    9   10 1
    21   10   20 1
    22   10   11 2
    23   11   12 1
    24   11   18 1
    25   12   13 2
    26   12   14 am
    27   14   15 1
    28   14   16 am
    29   16   17 2
    30   18   33 1
    31   18   34 1
    32   18   45 1
    33   19   20 1
    34   19   35 1
    35   19   36 1
    36   19   45 1
    37   20   37 1
    38   21   22 1
    39   21   23 1
    40   21   38 1
    41   21   45 1
    42   22   39 1
    43   22   40 1
    44   22   41 1
    45   23   42 1
    46   23   43 1
    47   23   44 1
    48   45   46 1
