@<TRIPOS>MOLECULE
ZINC04312835
   34    35     0     0     0
SMALL
USER_CHARGES

@<TRIPOS>ATOM
      1 C1         -0.0187    1.5258    0.0104 C.3       1 <0>        -0.1496
      2 C2          0.0021   -0.0041    0.0020 C.3       1 <0>        -0.1416
      3 C3          0.7182   -0.4975   -1.2568 C.3       1 <0>         0.1345
      4 N1          0.7381   -1.9623   -1.2648 N.pl3     1 <0>        -0.1946
      5 N2          1.7301   -2.7870   -0.7091 N.2       1 <0>        -0.3234
      6 C4          1.3457   -4.0240   -0.9450 C.2       1 <0>         0.4220
      7 N3          0.1885   -3.9652   -1.6054 N.2       1 <0>        -0.2859
      8 N4         -0.1545   -2.7382   -1.7786 N.2       1 <0>         0.0146
      9 N5          2.0267   -5.1869   -0.5719 N.am      1 <0>        -0.6210
     10 C5          1.5155   -6.3953   -0.8799 C.2       1 <0>         0.5633
     11 O1          0.4622   -6.4743   -1.4822 O.2       1 <0>        -0.4405
     12 C6          2.2339   -7.6220   -0.4862 C.ar      1 <0>        -0.1467
     13 C7          3.4418   -7.5358    0.2111 C.ar      1 <0>        -0.0293
     14 C8          4.1085   -8.6859    0.5761 C.ar      1 <0>        -0.1048
     15 C9          3.5860   -9.9289    0.2546 C.ar      1 <0>        -0.0168
     16 C10         2.3932  -10.0280   -0.4348 C.ar      1 <0>        -0.1221
     17 C11         1.7060   -8.8803   -0.8044 C.ar      1 <0>         0.2086
     18 O2          0.5309   -8.9763   -1.4760 O.3       1 <0>        -0.3089
     19 C12         0.5999   -9.0071   -2.9030 C.3       1 <0>         0.0467
     20 Br1         1.6914  -11.7297   -0.8680 Br        1 <0>        -0.0049
     21 Br2         5.7433   -8.5672    1.5192 Br        1 <0>        -0.0167
     22 H1          1.0039    1.9031    0.0027 H         1 <0>         0.0622
     23 H2         -0.5459    1.8868   -0.8726 H         1 <0>         0.0629
     24 H3         -0.5289    1.8773    0.9072 H         1 <0>         0.0677
     25 H4          0.5293   -0.3651    0.8851 H         1 <0>         0.0759
     26 H5         -1.0205   -0.3814    0.0098 H         1 <0>         0.0764
     27 H6          0.1910   -0.1364   -2.1398 H         1 <0>         0.1179
     28 H7          1.7408   -0.1202   -1.2645 H         1 <0>         0.1149
     29 H8          2.8670   -5.1238   -0.0914 H         1 <0>         0.4258
     30 H9          3.8527   -6.5694    0.4633 H         1 <0>         0.1481
     31 H10         4.1147  -10.8249    0.5444 H         1 <0>         0.1567
     32 H11         1.0696   -8.0921   -3.2639 H         1 <0>         0.0531
     33 H12         1.1893   -9.8675   -3.2198 H         1 <0>         0.0495
     34 H13        -0.4068   -9.0852   -3.3138 H         1 <0>         0.1062
@<TRIPOS>BOND
     1    1    2 1
     2    1   22 1
     3    1   23 1
     4    1   24 1
     5    2    3 1
     6    2   25 1
     7    2   26 1
     8    3    4 1
     9    3   27 1
    10    3   28 1
    11    4    8 1
    12    4    5 1
    13    5    6 2
    14    6    7 1
    15    6    9 1
    16    7    8 2
    17    9   10 am
    18    9   29 1
    19   10   11 2
    20   10   12 1
    21   12   17 ar
    22   12   13 ar
    23   13   14 ar
    24   13   30 1
    25   14   15 ar
    26   14   21 1
    27   15   16 ar
    28   15   31 1
    29   16   17 ar
    30   16   20 1
    31   17   18 1
    32   18   19 1
    33   19   32 1
    34   19   33 1
    35   19   34 1
