@<TRIPOS>MOLECULE
ZINC02793501
   40    42     0     0     0
SMALL
USER_CHARGES
1-(4-bromopyrazol-1-yl)-2-[[4-ethyl-5-[2-methyl-5-(trifluoromethyl)pyrazol-3-yl]-1,2,4-triazol-3-yl]sulfanyl]ethanone
@<TRIPOS>ATOM
      1 C1         -1.7953    2.2700    1.4294 C.3       1 <0>        -0.1763
      2 C2         -1.2819    2.1145   -0.0035 C.3       1 <0>         0.0868
      3 N1         -0.0270    1.3586    0.0067 N.pl3     1 <0>        -0.4390
      4 C3          0.1196   -0.0106    0.0272 C.2       1 <0>         0.2384
      5 N2          1.4101   -0.2595    0.0241 N.2       1 <0>        -0.2550
      6 N3          2.0693    0.8435    0.0033 N.2       1 <0>        -0.2788
      7 C4          1.2417    1.8647   -0.0081 C.2       1 <0>         0.1580
      8 S1          1.6863    3.5694   -0.0379 S.3       1 <0>         0.0942
      9 C5          3.4904    3.4237   -0.0450 C.3       1 <0>        -0.1417
     10 C6          4.1054    4.7993   -0.0704 C.2       1 <0>         0.5806
     11 O1          3.3967    5.7777   -0.0825 O.2       1 <0>        -0.4552
     12 N4          5.4460    4.9380   -0.0797 N.am      1 <0>        -0.3736
     13 C7          6.1322    6.1165   -0.1023 C.2       1 <0>         0.1197
     14 C8          7.4503    5.8202   -0.1045 C.2       1 <0>        -0.2191
     15 C9          7.5800    4.4235   -0.0826 C.2       1 <0>         0.1207
     16 N5          6.3841    3.8977   -0.0617 N.2       1 <0>        -0.2592
     17 Br1         8.8705    7.0685   -0.1326 Br        1 <0>         0.0089
     18 C10        -0.9649   -1.0076    0.0491 C.2       1 <0>         0.1642
     19 C11        -2.3173   -0.7495   -0.0334 C.2       1 <0>        -0.2089
     20 C12        -2.9852   -1.9722    0.0210 C.2       1 <0>        -0.0154
     21 N6         -2.1004   -2.9293    0.1398 N.2       1 <0>        -0.2110
     22 N7         -0.8209   -2.3605    0.1608 N.pl3     1 <0>        -0.3186
     23 C13         0.4454   -3.0873    0.2808 C.3       1 <0>         0.0857
     24 C14        -4.4792   -2.1601   -0.0404 C.3       1 <0>         0.5573
     25 F1         -4.7882   -3.5093    0.1629 F         1 <0>        -0.1625
     26 F2         -5.0876   -1.3873    0.9544 F         1 <0>        -0.1638
     27 F3         -4.9486   -1.7581   -1.2955 F         1 <0>        -0.1641
     28 H1         -2.0520    1.2901    1.8317 H         1 <0>         0.0705
     29 H2         -1.0196    2.7241    2.0460 H         1 <0>         0.0712
     30 H3         -2.6800    2.9067    1.4312 H         1 <0>         0.0921
     31 H4         -1.1090    3.0997   -0.4365 H         1 <0>         0.1094
     32 H5         -2.0227    1.5808   -0.5989 H         1 <0>         0.1096
     33 H6          3.8159    2.8967    0.8519 H         1 <0>         0.1456
     34 H7          3.8066    2.8680   -0.9278 H         1 <0>         0.1455
     35 H8          5.7005    7.1064   -0.1157 H         1 <0>         0.1999
     36 H9          8.5108    3.8757   -0.0786 H         1 <0>         0.2098
     37 H10        -2.7760    0.2238   -0.1262 H         1 <0>         0.1689
     38 H11         0.6645   -3.2641    1.3338 H         1 <0>         0.0891
     39 H12         0.3671   -4.0420   -0.2393 H         1 <0>         0.0994
     40 H13         1.2469   -2.4965   -0.1628 H         1 <0>         0.1167
@<TRIPOS>BOND
     1    1    2 1
     2    1   28 1
     3    1   29 1
     4    1   30 1
     5    2    3 1
     6    2   31 1
     7    2   32 1
     8    3    7 1
     9    3    4 1
    10    4    5 2
    11    4   18 1
    12    5    6 1
    13    6    7 2
    14    7    8 1
    15    8    9 1
    16    9   10 1
    17    9   33 1
    18    9   34 1
    19   10   11 2
    20   10   12 am
    21   12   16 1
    22   12   13 1
    23   13   14 2
    24   13   35 1
    25   14   15 1
    26   14   17 1
    27   15   16 2
    28   15   36 1
    29   18   22 1
    30   18   19 2
    31   19   20 1
    32   19   37 1
    33   20   21 2
    34   20   24 1
    35   21   22 1
    36   22   23 1
    37   23   38 1
    38   23   39 1
    39   23   40 1
    40   24   25 1
    41   24   26 1
    42   24   27 1
