@<TRIPOS>MOLECULE
ZINC02364851
   52    54     0     0     0
SMALL
USER_CHARGES
4-[5-[(2-chlorophenyl)methylene]-4-oxo-2-thioxo-thiazolidin-3-yl]-N'-(p-tolylsulfonyl)butanehydrazide
@<TRIPOS>ATOM
      1 C1         -9.5227   -5.7001   -5.0164 C.3       1 <0>        -0.1281
      2 C2         -8.3181   -5.0082   -5.6006 C.ar      1 <0>        -0.0226
      3 C3         -8.4776   -4.0779   -6.6106 C.ar      1 <0>        -0.1412
      4 C4         -7.3727   -3.4432   -7.1465 C.ar      1 <0>        -0.0114
      5 C5         -6.1084   -3.7381   -6.6718 C.ar      1 <0>        -0.6891
      6 C6         -5.9484   -4.6718   -5.6651 C.ar      1 <0>        -0.0195
      7 C7         -7.0537   -5.3033   -5.1262 C.ar      1 <0>        -0.1407
      8 S1         -4.7000   -2.9290   -7.3548 S.o2      1 <0>         2.6950
      9 O1         -5.0682   -2.5058   -8.6604 O.2       1 <0>        -0.9379
     10 O2         -3.5871   -3.7795   -7.1153 O.2       1 <0>        -0.9380
     11 N1         -4.4457   -1.5551   -6.4660 N.pl3     1 <0>        -0.9059
     12 N2         -4.1920   -1.6470   -5.0913 N.am      1 <0>        -0.5128
     13 C8         -3.0835   -1.0836   -4.5714 C.2       1 <0>         0.5193
     14 O3         -2.3056   -0.4970   -5.2936 O.2       1 <0>        -0.5133
     15 C9         -2.8107   -1.1826   -3.0926 C.3       1 <0>        -0.1279
     16 C10        -1.4992   -0.4651   -2.7668 C.3       1 <0>        -0.1201
     17 C11        -1.2221   -0.5655   -1.2655 C.3       1 <0>         0.0820
     18 N3          0.0336    0.1215   -0.9536 N.am      1 <0>        -0.5193
     19 C12         0.0071    1.4067   -0.6432 C.2       1 <0>         0.5468
     20 O4         -1.0338    2.0363   -0.6141 O.2       1 <0>        -0.4515
     21 C13         1.3073    2.0407   -0.3397 C.2       1 <0>        -0.2387
     22 C14         1.5845    3.3231    0.0048 C.2       1 <0>         0.0875
     23 C15         2.9804    3.7717    0.1048 C.ar      1 <0>        -0.0922
     24 C16         4.0020    3.0338   -0.5039 C.ar      1 <0>        -0.0789
     25 C17         5.3081    3.4639   -0.4095 C.ar      1 <0>        -0.1097
     26 C18         5.6128    4.6169    0.2940 C.ar      1 <0>        -0.0765
     27 C19         4.6105    5.3502    0.9036 C.ar      1 <0>        -0.1109
     28 C20         3.2964    4.9367    0.8146 C.ar      1 <0>        -0.0010
     29 Cl1         2.0399    5.8577    1.5805 Cl        1 <0>        -0.0487
     30 S2          2.4139    0.6528   -0.5513 S.3       1 <0>         0.0769
     31 C21         1.1901   -0.5711   -0.9900 C.2       1 <0>         0.2628
     32 S3          1.4277   -2.2242   -1.3667 S.2       1 <0>        -0.3223
     33 H1         -9.7246   -6.6130   -5.5767 H         1 <0>         0.0820
     34 H2         -9.3281   -5.9495   -3.9733 H         1 <0>         0.0749
     35 H3        -10.3866   -5.0383   -5.0766 H         1 <0>         0.0744
     36 H4         -9.4655   -3.8473   -6.9813 H         1 <0>         0.1354
     37 H5         -7.4973   -2.7167   -7.9359 H         1 <0>         0.1427
     38 H6         -4.9603   -4.9054   -5.2972 H         1 <0>         0.1431
     39 H7         -6.9291   -6.0299   -4.3369 H         1 <0>         0.1361
     40 H8         -4.4723   -0.6866   -6.8973 H         1 <0>         0.4295
     41 H9         -4.8142   -2.1162   -4.5136 H         1 <0>         0.4201
     42 H10        -2.7316   -2.2316   -2.8071 H         1 <0>         0.1117
     43 H11        -3.6267   -0.7163   -2.5405 H         1 <0>         0.1069
     44 H12        -1.5783    0.5839   -3.0523 H         1 <0>         0.0803
     45 H13        -0.6831   -0.9313   -3.3189 H         1 <0>         0.0876
     46 H14        -1.1430   -1.6145   -0.9800 H         1 <0>         0.1170
     47 H15        -2.0382   -0.0993   -0.7135 H         1 <0>         0.1078
     48 H16         0.7795    4.0145    0.2055 H         1 <0>         0.1665
     49 H17         3.7672    2.1317   -1.0494 H         1 <0>         0.1419
     50 H18         6.0968    2.8973   -0.8820 H         1 <0>         0.1423
     51 H19         6.6390    4.9455    0.3677 H         1 <0>         0.1429
     52 H20         4.8567    6.2482    1.4508 H         1 <0>         0.1447
@<TRIPOS>BOND
     1    1    2 1
     2    1   33 1
     3    1   34 1
     4    1   35 1
     5    2    7 ar
     6    2    3 ar
     7    3    4 ar
     8    3   36 1
     9    4    5 ar
    10    4   37 1
    11    5    6 ar
    12    5    8 1
    13    6    7 ar
    14    6   38 1
    15    7   39 1
    16    8    9 2
    17    8   10 2
    18    8   11 1
    19   11   12 1
    20   11   40 1
    21   12   13 am
    22   12   41 1
    23   13   14 2
    24   13   15 1
    25   15   16 1
    26   15   42 1
    27   15   43 1
    28   16   17 1
    29   16   44 1
    30   16   45 1
    31   17   18 1
    32   17   46 1
    33   17   47 1
    34   18   31 1
    35   18   19 am
    36   19   20 2
    37   19   21 1
    38   21   22 2
    39   21   30 1
    40   22   23 1
    41   22   48 1
    42   23   28 ar
    43   23   24 ar
    44   24   25 ar
    45   24   49 1
    46   25   26 ar
    47   25   50 1
    48   26   27 ar
    49   26   51 1
    50   27   28 ar
    51   27   52 1
    52   28   29 1
    53   30   31 1
    54   31   32 2
