@<TRIPOS>MOLECULE
ZINC20530369
   64    69     0     0     0
SMALL
USER_CHARGES
[2-oxo-2-(4-phenylphenyl)ethyl] (3aR,4R,9bS)-4-(4-chlorophenyl)-3a,4,5,9b-tetrahydro-3H-cyclopenta[c]quinoline-8-carboxylate
@<TRIPOS>ATOM
      1 C1        -11.4052   -1.3880    0.0465 C.ar      1 <0>        -0.1113
      2 C2        -10.2987   -2.2183    0.0363 C.ar      1 <0>        -0.1189
      3 C3         -9.0284   -1.6793    0.0338 C.ar      1 <0>        -0.1040
      4 C4         -8.8614   -0.2951    0.0410 C.ar      1 <0>        -0.0605
      5 C5         -9.9803    0.5366    0.0566 C.ar      1 <0>        -0.1040
      6 C6        -11.2457   -0.0139    0.0537 C.ar      1 <0>        -0.1188
      7 C7         -7.4994    0.2900    0.0382 C.ar      1 <0>        -0.0047
      8 C8         -7.3365    1.6762    0.0455 C.ar      1 <0>        -0.1243
      9 C9         -6.0779    2.2196    0.0429 C.ar      1 <0>        -0.0499
     10 C10        -4.9554    1.3830    0.0331 C.ar      1 <0>        -0.1694
     11 C11        -5.1213   -0.0071    0.0204 C.ar      1 <0>        -0.0688
     12 C12        -6.3819   -0.5460    0.0288 C.ar      1 <0>        -0.1239
     13 C13        -3.6048    1.9632    0.0298 C.2       1 <0>         0.3983
     14 O1         -3.4623    3.1676    0.0357 O.2       1 <0>        -0.4257
     15 C14        -2.3974    1.0616    0.0192 C.3       1 <0>         0.0198
     16 O2         -1.1905    1.8688    0.0179 O.3       1 <0>        -0.3362
     17 C15        -0.0144    1.2110    0.0087 C.2       1 <0>         0.5158
     18 O3          0.0021   -0.0041    0.0020 O.2       1 <0>        -0.5145
     19 C16         1.2518    1.9652    0.0007 C.ar      1 <0>        -0.1869
     20 C17         1.2332    3.3636    0.0026 C.ar      1 <0>        -0.0156
     21 C18         2.4102    4.0555    0.0018 C.ar      1 <0>        -0.2006
     22 C19         3.6261    3.3763   -0.0145 C.ar      1 <0>         0.2633
     23 C20         3.6620    1.9867   -0.0232 C.ar      1 <0>        -0.1664
     24 C21         2.4702    1.2842   -0.0146 C.ar      1 <0>        -0.0025
     25 C22         4.9456    1.2189   -0.0409 C.3       1 <0>        -0.0065
     26 H1          4.7871    0.4484    0.7280 H         1 <0>         0.0977
     27 C23         5.2172    0.6334   -1.4065 C.2       1 <0>        -0.1602
     28 C24         6.5012    0.6681   -1.6679 C.2       1 <0>        -0.1786
     29 C25         7.2632    1.2776   -0.5072 C.3       1 <0>        -0.0898
     30 C26         6.1766    2.1011    0.2448 C.3       1 <0>        -0.0851
     31 H2          6.3479    2.3212    1.3089 H         1 <0>         0.1013
     32 C27         6.0370    3.4418   -0.4818 C.3       1 <0>         0.1981
     33 H3          5.9594    3.3020   -1.5701 H         1 <0>         0.0821
     34 N1          4.8125    4.1058   -0.0240 N.pl3     1 <0>        -0.7482
     35 C28         7.2285    4.3106   -0.1710 C.ar      1 <0>        -0.0871
     36 C29         7.2824    5.0087    1.0209 C.ar      1 <0>        -0.0990
     37 C30         8.3775    5.8013    1.3090 C.ar      1 <0>        -0.1062
     38 C31         9.4147    5.9047    0.3991 C.ar      1 <0>        -0.0317
     39 C32         9.3575    5.2103   -0.7961 C.ar      1 <0>        -0.1060
     40 C33         8.2644    4.4136   -1.0805 C.ar      1 <0>        -0.0928
     41 Cl1        10.7869    6.9060    0.7568 Cl        1 <0>        -0.0655
     42 H4        -12.3975   -1.8143    0.0492 H         1 <0>         0.1251
     43 H5        -10.4293   -3.2903    0.0308 H         1 <0>         0.1268
     44 H6         -8.1653   -2.3284    0.0265 H         1 <0>         0.1275
     45 H7         -9.8570    1.6094    0.0671 H         1 <0>         0.1274
     46 H8        -12.1133    0.6294    0.0613 H         1 <0>         0.1267
     47 H9         -8.2027    2.3212    0.0527 H         1 <0>         0.1348
     48 H10        -5.9524    3.2923    0.0489 H         1 <0>         0.1389
     49 H11        -4.2569   -0.6544    0.0083 H         1 <0>         0.1356
     50 H12        -6.5103   -1.6183    0.0236 H         1 <0>         0.1349
     51 H13        -2.4097    0.4219    0.9140 H         1 <0>         0.1092
     52 H14        -2.4181    0.4316   -0.8823 H         1 <0>         0.1091
     53 H15         0.2923    3.8937    0.0092 H         1 <0>         0.1385
     54 H16         2.3984    5.1354    0.0085 H         1 <0>         0.1298
     55 H17         2.4825    0.2043   -0.0202 H         1 <0>         0.1350
     56 H18         4.5167    0.2159   -2.1448 H         1 <0>         0.1299
     57 H19         6.8778    0.2833   -2.6271 H         1 <0>         0.1309
     58 H20         7.6869    0.4754    0.1149 H         1 <0>         0.0835
     59 H21         8.0760    1.9099   -0.8938 H         1 <0>         0.0762
     60 H22         4.8451    5.1560    0.3015 H         1 <0>         0.4260
     61 H23         6.4707    4.9313    1.7292 H         1 <0>         0.1340
     62 H24         8.4216    6.3431    2.2421 H         1 <0>         0.1358
     63 H25        10.1669    5.2904   -1.5066 H         1 <0>         0.1366
     64 H26         8.2199    3.8712   -2.0134 H         1 <0>         0.1347
@<TRIPOS>BOND
     1    1    6 ar
     2    1    2 ar
     3    1   42 1
     4    2    3 ar
     5    2   43 1
     6    3    4 ar
     7    3   44 1
     8    4    5 ar
     9    4    7 1
    10    5    6 ar
    11    5   45 1
    12    6   46 1
    13    7   12 ar
    14    7    8 ar
    15    8    9 ar
    16    8   47 1
    17    9   10 ar
    18    9   48 1
    19   10   11 ar
    20   10   13 1
    21   11   12 ar
    22   11   49 1
    23   12   50 1
    24   13   14 2
    25   13   15 1
    26   15   16 1
    27   15   51 1
    28   15   52 1
    29   16   17 1
    30   17   18 2
    31   17   19 1
    32   19   24 ar
    33   19   20 ar
    34   20   21 ar
    35   20   53 1
    36   21   22 ar
    37   21   54 1
    38   22   34 1
    39   22   23 ar
    40   23   24 ar
    41   23   25 1
    42   24   55 1
    43   25   26 1
    44   25   30 1
    45   25   27 1
    46   27   28 2
    47   27   56 1
    48   28   29 1
    49   28   57 1
    50   29   30 1
    51   29   58 1
    52   29   59 1
    53   30   31 1
    54   30   32 1
    55   32   33 1
    56   32   34 1
    57   32   35 1
    58   34   60 1
    59   35   40 ar
    60   35   36 ar
    61   36   37 ar
    62   36   61 1
    63   37   38 ar
    64   37   62 1
    65   38   39 ar
    66   38   41 1
    67   39   40 ar
    68   39   63 1
    69   40   64 1
