@<TRIPOS>MOLECULE
ZINC08970123
   71    75     0     0     0
SMALL
USER_CHARGES
1-[(6S,9R)-9-(4-chlorophenyl)-7-hydroxy-6-(4-methoxyphenyl)-6,8,9,10-tetrahydrobenzo[b][1,4]benzodiazepin-5-yl]hexan-1-one
@<TRIPOS>ATOM
      1 C1          5.8253   15.4137    1.1546 C.3       1 <0>        -0.1547
      2 C2          5.4352   14.1733    0.3483 C.3       1 <0>        -0.1266
      3 C3          5.9307   12.9189    1.0708 C.3       1 <0>        -0.1188
      4 C4          5.5407   11.6784    0.2645 C.3       1 <0>        -0.1077
      5 C5          6.0360   10.4240    0.9869 C.3       1 <0>        -0.1397
      6 C6          5.6519    9.2022    0.1927 C.2       1 <0>         0.5125
      7 O1          5.0418    9.3229   -0.8486 O.2       1 <0>        -0.5077
      8 N1          5.9861    7.9754    0.6396 N.am      1 <0>        -0.5598
      9 C7          6.6825    7.8552    1.8303 C.ar      1 <0>         0.1358
     10 C8          7.9246    8.4253    2.0166 C.ar      1 <0>        -0.1068
     11 C9          8.6086    8.2336    3.2034 C.ar      1 <0>        -0.1031
     12 C10         8.0448    7.4662    4.2082 C.ar      1 <0>        -0.0990
     13 C11         6.7994    6.9030    4.0457 C.ar      1 <0>        -0.1246
     14 C12         6.0785    7.0950    2.8595 C.ar      1 <0>         0.1092
     15 N2          4.8537    6.5733    2.7260 N.pl3     1 <0>        -0.5913
     16 C13         4.1784    5.9975    1.7974 C.2       1 <0>         0.3116
     17 C14         2.9315    5.2577    2.2601 C.3       1 <0>        -0.1071
     18 C15         2.6446    4.0941    1.3124 C.3       1 <0>        -0.0366
     19 H1          3.4785    3.3768    1.3172 H         1 <0>         0.0958
     20 C16         2.4270    4.6665   -0.0922 C.3       1 <0>        -0.1317
     21 C17         3.6366    5.4602   -0.4864 C.2       1 <0>         0.3505
     22 C18         4.4403    6.0695    0.4101 C.2       1 <0>        -0.3381
     23 C19         5.6112    6.8179   -0.1327 C.3       1 <0>         0.2446
     24 H2          5.3144    7.2287   -1.1090 H         1 <0>         0.1325
     25 C20         6.7892    5.8798   -0.1913 C.ar      1 <0>        -0.1157
     26 C21         8.0458    6.3684   -0.4982 C.ar      1 <0>        -0.0613
     27 C22         9.1283    5.5116   -0.5470 C.ar      1 <0>        -0.2061
     28 C23         8.9519    4.1580   -0.2989 C.ar      1 <0>         0.1295
     29 C24         7.6890    3.6694    0.0032 C.ar      1 <0>        -0.1535
     30 C25         6.6107    4.5314    0.0563 C.ar      1 <0>        -0.0556
     31 O2         10.0143    3.3122   -0.3514 O.3       1 <0>        -0.3176
     32 C26        11.2845    3.8851   -0.6683 C.3       1 <0>         0.0242
     33 O3          3.9360    5.5688   -1.7988 O.2       1 <0>        -0.5570
     34 C27         1.4052    3.3646    1.7625 C.ar      1 <0>        -0.0786
     35 C28         1.4728    2.0225    2.0868 C.ar      1 <0>        -0.0970
     36 C29         0.3363    1.3528    2.4992 C.ar      1 <0>        -0.1068
     37 C30        -0.8703    2.0246    2.5824 C.ar      1 <0>        -0.0338
     38 C31        -0.9362    3.3692    2.2632 C.ar      1 <0>        -0.1066
     39 C32         0.2009    4.0377    1.8505 C.ar      1 <0>        -0.1010
     40 Cl1        -2.2998    1.1821    3.0929 Cl        1 <0>        -0.0670
     41 H3          5.4691   16.3156    0.6352 H         1 <0>         0.0545
     42 H4          6.9199   15.4566    1.2550 H         1 <0>         0.0537
     43 H5          5.3673   15.3608    2.1534 H         1 <0>         0.0534
     44 H6          4.3406   14.1304    0.2480 H         1 <0>         0.0623
     45 H7          5.8932   14.2262   -0.6504 H         1 <0>         0.0628
     46 H8          7.0253   12.9618    1.1712 H         1 <0>         0.0624
     47 H9          5.4728   12.8660    2.0696 H         1 <0>         0.0615
     48 H10         4.4461   11.6356    0.1642 H         1 <0>         0.0701
     49 H11         5.9986   11.7313   -0.7342 H         1 <0>         0.0715
     50 H12         7.1306   10.4669    1.0873 H         1 <0>         0.0970
     51 H13         5.5781   10.3711    1.9856 H         1 <0>         0.0926
     52 H14         8.3645    9.0242    1.2329 H         1 <0>         0.1311
     53 H15         9.5807    8.6820    3.3460 H         1 <0>         0.1338
     54 H16         8.5874    7.3077    5.1284 H         1 <0>         0.1333
     55 H17         6.3735    6.3082    4.8400 H         1 <0>         0.1334
     56 H18         2.0758    5.9489    2.2615 H         1 <0>         0.1088
     57 H19         3.0922    4.8711    3.2773 H         1 <0>         0.0993
     58 H20         2.2750    3.8422   -0.8045 H         1 <0>         0.1018
     59 H21         1.5401    5.3172   -0.0897 H         1 <0>         0.1033
     60 H22         8.1818    7.4214   -0.6955 H         1 <0>         0.1166
     61 H23        10.1104    5.8943   -0.7824 H         1 <0>         0.1269
     62 H24         7.5491    2.6162    0.1963 H         1 <0>         0.1289
     63 H25         5.6275    4.1515    0.2918 H         1 <0>         0.1250
     64 H26        12.0507    3.0958   -0.6774 H         1 <0>         0.1019
     65 H27        11.5450    4.6403    0.0879 H         1 <0>         0.0554
     66 H28        11.2356    4.3600   -1.6593 H         1 <0>         0.0565
     67 H29         4.4026    6.7315    3.7167 H         1 <0>         0.4291
     68 H30         2.4139    1.4971    2.0175 H         1 <0>         0.1341
     69 H31         0.3892    0.3041    2.7522 H         1 <0>         0.1355
     70 H32        -1.8770    3.8951    2.3319 H         1 <0>         0.1352
     71 H33         0.1487    5.0862    1.5970 H         1 <0>         0.1328
@<TRIPOS>BOND
     1    1    2 1
     2    1   41 1
     3    1   42 1
     4    1   43 1
     5    2    3 1
     6    2   44 1
     7    2   45 1
     8    3    4 1
     9    3   46 1
    10    3   47 1
    11    4    5 1
    12    4   48 1
    13    4   49 1
    14    5    6 1
    15    5   50 1
    16    5   51 1
    17    6    7 2
    18    6    8 am
    19    8   23 1
    20    8    9 1
    21    9   14 ar
    22    9   10 ar
    23   10   11 ar
    24   10   52 1
    25   11   12 ar
    26   11   53 1
    27   12   13 ar
    28   12   54 1
    29   13   14 ar
    30   13   55 1
    31   14   15 1
    32   15   16 1
    33   15   67 1
    34   16   22 2
    35   16   17 1
    36   17   18 1
    37   17   56 1
    38   17   57 1
    39   18   19 1
    40   18   20 1
    41   18   34 1
    42   20   58 1
    43   20   59 1
    44   20   21 1
    45   21   33 2
    46   21   22 1
    47   22   23 1
    48   23   24 1
    49   23   25 1
    50   25   30 ar
    51   25   26 ar
    52   26   27 ar
    53   26   60 1
    54   27   28 ar
    55   27   61 1
    56   28   29 ar
    57   28   31 1
    58   29   30 ar
    59   29   62 1
    60   30   63 1
    61   31   32 1
    62   32   64 1
    63   32   65 1
    64   32   66 1
    65   34   39 ar
    66   34   35 ar
    67   35   36 ar
    68   35   68 1
    69   36   37 ar
    70   36   69 1
    71   37   38 ar
    72   37   40 1
    73   38   39 ar
    74   38   70 1
    75   39   71 1
