@<TRIPOS>MOLECULE
ZINC67390343
   54    55     0     0     0
SMALL
USER_CHARGES

@<TRIPOS>ATOM
      1 C1         -0.0220    1.5239    0.0099 C.3       1 <0>        -0.1213
      2 C2          1.4119    2.0574   -0.0068 C.3       1 <0>        -0.1204
      3 C3          2.1254    1.5631   -1.2667 C.3       1 <0>        -0.1144
      4 C4          2.1504    0.0333   -1.2717 C.3       1 <0>        -0.0876
      5 C5          0.7165   -0.5002   -1.2551 C.3       1 <0>        -0.1183
      6 C6          0.0030   -0.0059    0.0049 C.3       1 <0>        -0.1207
      7 C7          2.8639   -0.4610   -2.5317 C.3       1 <0>        -0.0986
      8 C8          2.9993   -1.9840   -2.4767 C.3       1 <0>        -0.1300
      9 C9          3.7021   -2.4709   -3.7178 C.2       1 <0>         0.5134
     10 O1          4.0594   -1.6778   -4.5629 O.2       1 <0>        -0.5415
     11 N1          3.9335   -3.7876   -3.8884 N.am      1 <0>        -0.5102
     12 N2          4.5868   -4.2402   -5.0422 N.am      1 <0>        -0.5449
     13 C10         4.9084   -5.5431   -5.1672 C.2       1 <0>         0.7130
     14 O2          4.5499   -6.3415   -4.3232 O.2       1 <0>        -0.5868
     15 N3          5.6273   -5.9609   -6.2279 N.am      1 <0>        -0.6195
     16 C11         6.1695   -4.9943   -7.1924 C.3       1 <0>         0.1098
     17 C12         5.7186   -5.3966   -8.6001 C.3       1 <0>        -0.1323
     18 C13         6.1268   -6.8472   -8.8671 C.3       1 <0>        -0.0725
     19 C14         5.4366   -7.7672   -7.8574 C.3       1 <0>        -0.1358
     20 C15         5.8890   -7.3913   -6.4382 C.3       1 <0>         0.1323
     21 C16         5.7088   -7.2417  -10.2850 C.3       1 <0>        -0.1399
     22 C17         6.2180   -8.6265  -10.5919 C.2       1 <0>         0.5152
     23 O3          6.8528   -9.2376   -9.7586 O.2       1 <0>        -0.5381
     24 N4          5.9680   -9.1857  -11.7924 N.am      1 <0>        -0.8587
     25 H1         -0.5303    1.8760    0.9075 H         1 <0>         0.0599
     26 H2         -0.5530    1.8815   -0.8723 H         1 <0>         0.0609
     27 H3          1.3941    3.1473   -0.0032 H         1 <0>         0.0610
     28 H4          1.9429    1.6998    0.8754 H         1 <0>         0.0611
     29 H5          1.5944    1.9207   -2.1489 H         1 <0>         0.0628
     30 H6          3.1469    1.9432   -1.2786 H         1 <0>         0.0625
     31 H7          2.6814   -0.3243   -0.3895 H         1 <0>         0.0721
     32 H8          0.1855   -0.1426   -2.1372 H         1 <0>         0.0630
     33 H9          0.7343   -1.5901   -1.2586 H         1 <0>         0.0628
     34 H10         0.5340   -0.3635    0.8871 H         1 <0>         0.0613
     35 H11        -1.0185   -0.3860    0.0168 H         1 <0>         0.0607
     36 H12         2.2850   -0.1792   -3.4112 H         1 <0>         0.0723
     37 H13         3.8545   -0.0099   -2.5888 H         1 <0>         0.0725
     38 H14         3.5781   -2.2658   -1.5972 H         1 <0>         0.1005
     39 H15         2.0087   -2.4350   -2.4196 H         1 <0>         0.1019
     40 H16         3.6477   -4.4219   -3.2125 H         1 <0>         0.4323
     41 H17         4.8077   -3.6160   -5.7509 H         1 <0>         0.4266
     42 H18         5.7955   -3.9972   -6.9600 H         1 <0>         0.0768
     43 H19         7.2583   -4.9993   -7.1421 H         1 <0>         0.0784
     44 H20         4.6352   -5.3038   -8.6756 H         1 <0>         0.0707
     45 H21         6.1921   -4.7445   -9.3341 H         1 <0>         0.0808
     46 H22         7.2079   -6.9445   -8.7671 H         1 <0>         0.0842
     47 H23         4.3559   -7.6520   -7.9399 H         1 <0>         0.0623
     48 H24         5.7094   -8.8024   -8.0627 H         1 <0>         0.0967
     49 H25         6.9554   -7.5878   -6.3276 H         1 <0>         0.0724
     50 H26         5.3299   -7.9763   -5.7080 H         1 <0>         0.0957
     51 H27         4.6214   -7.2296  -10.3598 H         1 <0>         0.0952
     52 H28         6.1299   -6.5333  -10.9983 H         1 <0>         0.0968
     53 H29         5.4602   -8.6969  -12.4589 H         1 <0>         0.4017
     54 H30         6.2958  -10.0770  -11.9900 H         1 <0>         0.4020
@<TRIPOS>BOND
     1    1    6 1
     2    1    2 1
     3    1   25 1
     4    1   26 1
     5    2    3 1
     6    2   27 1
     7    2   28 1
     8    3    4 1
     9    3   29 1
    10    3   30 1
    11    4    5 1
    12    4    7 1
    13    4   31 1
    14    5    6 1
    15    5   32 1
    16    5   33 1
    17    6   34 1
    18    6   35 1
    19    7    8 1
    20    7   36 1
    21    7   37 1
    22    8    9 1
    23    8   38 1
    24    8   39 1
    25    9   10 2
    26    9   11 am
    27   11   12 1
    28   11   40 1
    29   12   13 am
    30   12   41 1
    31   13   14 2
    32   13   15 am
    33   15   20 1
    34   15   16 1
    35   16   17 1
    36   16   42 1
    37   16   43 1
    38   17   18 1
    39   17   44 1
    40   17   45 1
    41   18   19 1
    42   18   21 1
    43   18   46 1
    44   19   20 1
    45   19   47 1
    46   19   48 1
    47   20   49 1
    48   20   50 1
    49   21   22 1
    50   21   51 1
    51   21   52 1
    52   22   23 2
    53   22   24 am
    54   24   53 1
    55   24   54 1
