@<TRIPOS>MOLECULE
ZINC05345847
   59    63     0     0     0
SMALL
USER_CHARGES

@<TRIPOS>ATOM
      1 C1          0.6383   -0.2299    1.3693 C.3       1 <0>        -0.1527
      2 C2          0.0286   -0.0645   -0.0242 C.3       1 <0>        -0.1026
      3 C3          0.8885   -0.8076   -1.0485 C.3       1 <0>        -0.1636
      4 C4         -1.3882   -0.6419   -0.0329 C.3       1 <0>        -0.1428
      5 C5         -2.0504   -0.3483   -1.3805 C.3       1 <0>         0.0386
      6 H1         -1.4446   -0.7464   -2.1946 H         1 <0>         0.1774
      7 C6         -3.4704   -0.9509   -1.4236 C.3       1 <0>        -0.1348
      8 H2         -3.4918   -1.9405   -1.8801 H         1 <0>         0.1844
      9 C7         -4.3228    0.0901   -2.2017 C.3       1 <0>        -0.1156
     10 H3         -4.8086   -0.3328   -3.0811 H         1 <0>         0.1784
     11 C8         -5.3123    0.5733   -1.1650 C.2       1 <0>         0.5200
     12 O1         -6.1808    1.3970   -1.3562 O.2       1 <0>        -0.4188
     13 N1         -5.0801   -0.0497   -0.0039 N.am      1 <0>        -0.5730
     14 C9         -4.0611   -0.9390   -0.0323 C.2       1 <0>         0.5227
     15 O2         -3.6773   -1.6156    0.8975 O.2       1 <0>        -0.4237
     16 C10        -5.8702    0.2043    1.2033 C.3       1 <0>         0.1012
     17 C11        -7.0614   -0.7550    1.2445 C.3       1 <0>        -0.0921
     18 C12        -7.8741   -0.4936    2.4863 C.ar      1 <0>        -0.0957
     19 C13        -7.5812   -1.1658    3.6582 C.ar      1 <0>        -0.1122
     20 C14        -8.3268   -0.9260    4.7974 C.ar      1 <0>        -0.1158
     21 C15        -9.3649   -0.0138    4.7647 C.ar      1 <0>        -0.1132
     22 C16        -9.6572    0.6590    3.5930 C.ar      1 <0>        -0.1161
     23 C17        -8.9089    0.4224    2.4550 C.ar      1 <0>        -0.1122
     24 C18        -3.3362    1.2102   -2.5537 C.3       1 <0>         0.0988
     25 N2         -2.2486    1.1156   -1.5515 N.4       1 <0>        -0.5006
     26 C19        -3.9936    2.5601   -2.5086 C.ar      1 <0>        -0.2142
     27 C20        -4.6431    3.2661   -1.5206 C.ar      1 <0>        -0.0187
     28 C21        -5.1561    4.5223   -1.7902 C.ar      1 <0>        -0.1214
     29 C22        -5.0151    5.0667   -3.0538 C.ar      1 <0>        -0.0401
     30 C23        -4.3656    4.3632   -4.0467 C.ar      1 <0>        -0.1250
     31 C24        -3.8462    3.0977   -3.7838 C.ar      1 <0>         0.1687
     32 N3         -3.1603    2.2035   -4.6086 N.am      1 <0>        -0.6376
     33 C25        -2.8258    1.0702   -3.9619 C.2       1 <0>         0.5372
     34 O3         -2.2292    0.1212   -4.4250 O.2       1 <0>        -0.4407
     35 H4          1.6505    0.1743    1.3734 H         1 <0>         0.0686
     36 H5          0.0301    0.3061    2.0979 H         1 <0>         0.0602
     37 H6          0.6685   -1.2880    1.6294 H         1 <0>         0.0679
     38 H7         -0.0089    0.9942   -0.2810 H         1 <0>         0.0616
     39 H8          0.9260   -1.8663   -0.7917 H         1 <0>         0.0720
     40 H9          0.4542   -0.6898   -2.0413 H         1 <0>         0.0533
     41 H10         1.8979   -0.3963   -1.0423 H         1 <0>         0.0714
     42 H11        -1.3422   -1.7198    0.1222 H         1 <0>         0.1324
     43 H12        -1.9719   -0.1845    0.7660 H         1 <0>         0.0916
     44 H13        -5.2477    0.0487    2.0844 H         1 <0>         0.1054
     45 H14        -6.2320    1.2325    1.1910 H         1 <0>         0.1045
     46 H15        -7.6839   -0.5994    0.3634 H         1 <0>         0.0806
     47 H16        -6.6996   -1.7831    1.2568 H         1 <0>         0.0807
     48 H17        -6.7702   -1.8785    3.6837 H         1 <0>         0.1223
     49 H18        -8.0984   -1.4517    5.7127 H         1 <0>         0.1260
     50 H19        -9.9478    0.1730    5.6545 H         1 <0>         0.1260
     51 H20       -10.4684    1.3715    3.5674 H         1 <0>         0.1259
     52 H21        -9.1349    0.9508    1.5406 H         1 <0>         0.1221
     53 H22        -2.5236    1.5390   -0.6779 H         1 <0>         0.4337
     54 H23        -4.7523    2.8387   -0.5347 H         1 <0>         0.1277
     55 H24        -5.6659    5.0765   -1.0160 H         1 <0>         0.1467
     56 H25        -5.4158    6.0473   -3.2642 H         1 <0>         0.1499
     57 H26        -4.2598    4.7948   -5.0310 H         1 <0>         0.1452
     58 H27        -2.9491    2.3782   -5.5390 H         1 <0>         0.4389
     59 H28        -1.4079    1.5468   -1.9055 H         1 <0>         0.4418
@<TRIPOS>BOND
     1    1    2 1
     2    1   35 1
     3    1   36 1
     4    1   37 1
     5    2    3 1
     6    2    4 1
     7    2   38 1
     8    3   39 1
     9    3   40 1
    10    3   41 1
    11    4    5 1
    12    4   42 1
    13    4   43 1
    14    5    6 1
    15    5   25 1
    16    5    7 1
    17    7    8 1
    18    7   14 1
    19    7    9 1
    20    9   10 1
    21    9   11 1
    22    9   24 1
    23   11   12 2
    24   11   13 am
    25   13   14 am
    26   13   16 1
    27   14   15 2
    28   16   17 1
    29   16   44 1
    30   16   45 1
    31   17   18 1
    32   17   46 1
    33   17   47 1
    34   18   23 ar
    35   18   19 ar
    36   19   20 ar
    37   19   48 1
    38   20   21 ar
    39   20   49 1
    40   21   22 ar
    41   21   50 1
    42   22   23 ar
    43   22   51 1
    44   23   52 1
    45   24   33 1
    46   24   25 1
    47   24   26 1
    48   25   53 1
    49   25   59 1
    50   26   31 ar
    51   26   27 ar
    52   27   28 ar
    53   27   54 1
    54   28   29 ar
    55   28   55 1
    56   29   30 ar
    57   29   56 1
    58   30   31 ar
    59   30   57 1
    60   31   32 1
    61   32   33 am
    62   32   58 1
    63   33   34 2
