@<TRIPOS>MOLECULE
ZINC48999605
   54    56     0     0     0
SMALL
USER_CHARGES

@<TRIPOS>ATOM
      1 C1          0.0115    1.1987   -0.1343 C.3       1 <0>        -0.1338
      2 C2          0.0598   -0.2970    0.0433 C.2       1 <0>         0.1880
      3 C3          0.0011   -1.0987   -1.0416 C.2       1 <0>        -0.2563
      4 C4          0.0458   -2.4981   -0.8820 C.2       1 <0>         0.2434
      5 C5          0.1497   -3.0240    0.3927 C.2       1 <0>        -0.2524
      6 C6          0.2074   -2.1520    1.4870 C.2       1 <0>         0.5417
      7 O1          0.2996   -2.6002    2.6193 O.2       1 <0>        -0.5135
      8 N1          0.1674   -0.8206    1.2928 N.am      1 <0>        -0.4916
      9 C7          0.2352    0.0784    2.4476 C.3       1 <0>         0.1216
     10 C8          1.6775    0.3675    2.7750 C.ar      1 <0>        -0.1060
     11 C9          2.3810   -0.4822    3.6084 C.ar      1 <0>        -0.0540
     12 C10         3.7037   -0.2170    3.9088 C.ar      1 <0>        -0.1112
     13 C11         4.3236    0.8978    3.3754 C.ar      1 <0>        -0.0816
     14 C12         3.6207    1.7468    2.5416 C.ar      1 <0>        -0.1661
     15 C13         2.2988    1.4791    2.2377 C.ar      1 <0>        -0.0858
     16 C14         4.2963    2.9621    1.9606 C.3       1 <0>         0.0440
     17 N2          4.9152    2.6109    0.6755 N.4       1 <0>        -0.3866
     18 C15         3.8684    2.2496   -0.2897 C.3       1 <0>        -0.0564
     19 C16         5.6742    3.7613    0.1669 C.3       1 <0>        -0.0478
     20 Br1         0.2124   -4.8957    0.6548 Br        1 <0>         0.0138
     21 O2         -0.0125   -3.3156   -1.9607 O.3       1 <0>        -0.3151
     22 C17        -1.2195   -3.2954   -2.7255 C.3       1 <0>         0.1203
     23 C18        -1.1500   -4.3483   -3.8014 C.ar      1 <0>        -0.1433
     24 C19        -0.0285   -5.1485   -3.9137 C.ar      1 <0>        -0.0373
     25 C20         0.0364   -6.1146   -4.8995 C.ar      1 <0>        -0.1613
     26 C21        -1.0223   -6.2820   -5.7766 C.ar      1 <0>         0.1391
     27 C22        -2.1457   -5.4814   -5.6652 C.ar      1 <0>        -0.1885
     28 C23        -2.2119   -4.5176   -4.6735 C.ar      1 <0>         0.1410
     29 F1         -3.3103   -3.7392   -4.5600 F         1 <0>        -0.1266
     30 F2         -0.9582   -7.2260   -6.7409 F         1 <0>        -0.1254
     31 H1          1.0268    1.5946   -0.1589 H         1 <0>         0.0830
     32 H2         -0.4943    1.4373   -1.0699 H         1 <0>         0.1030
     33 H3         -0.5329    1.6459    0.6974 H         1 <0>         0.0900
     34 H4         -0.0802   -0.6687   -2.0289 H         1 <0>         0.1604
     35 H5         -0.2780    1.0109    2.2127 H         1 <0>         0.1116
     36 H6         -0.2442   -0.3943    3.3047 H         1 <0>         0.1198
     37 H7          1.8967   -1.3530    4.0251 H         1 <0>         0.1470
     38 H8          4.2530   -0.8805    4.5604 H         1 <0>         0.1404
     39 H9          5.3571    1.1054    3.6107 H         1 <0>         0.1343
     40 H10         1.7506    2.1405    1.5831 H         1 <0>         0.1319
     41 H11         3.5580    3.7488    1.8053 H         1 <0>         0.1361
     42 H12         5.0640    3.3151    2.6492 H         1 <0>         0.1389
     43 H13         4.3277    1.9890   -1.2433 H         1 <0>         0.1267
     44 H14         3.3053    1.3960    0.0877 H         1 <0>         0.1200
     45 H15         3.1955    3.0956   -0.4296 H         1 <0>         0.1232
     46 H16         6.4509    4.0294    0.8831 H         1 <0>         0.1247
     47 H17         6.1334    3.5007   -0.7867 H         1 <0>         0.1254
     48 H18         5.0013    4.6073    0.0269 H         1 <0>         0.1231
     49 H19        -2.0674   -3.4995   -2.0716 H         1 <0>         0.0833
     50 H20        -1.3424   -2.3145   -3.1845 H         1 <0>         0.0825
     51 H21         0.7979   -5.0182   -3.2306 H         1 <0>         0.1529
     52 H22         0.9132   -6.7393   -4.9863 H         1 <0>         0.1477
     53 H23        -2.9717   -5.6112   -6.3487 H         1 <0>         0.1548
     54 H24         5.5381    1.8278    0.8050 H         1 <0>         0.4272
@<TRIPOS>BOND
     1    1    2 1
     2    1   31 1
     3    1   32 1
     4    1   33 1
     5    2    8 1
     6    2    3 2
     7    3    4 1
     8    3   34 1
     9    4    5 2
    10    4   21 1
    11    5    6 1
    12    5   20 1
    13    6    7 2
    14    6    8 am
    15    8    9 1
    16    9   10 1
    17    9   35 1
    18    9   36 1
    19   10   15 ar
    20   10   11 ar
    21   11   12 ar
    22   11   37 1
    23   12   13 ar
    24   12   38 1
    25   13   14 ar
    26   13   39 1
    27   14   15 ar
    28   14   16 1
    29   15   40 1
    30   16   17 1
    31   16   41 1
    32   16   42 1
    33   17   18 1
    34   17   19 1
    35   17   54 1
    36   18   43 1
    37   18   44 1
    38   18   45 1
    39   19   46 1
    40   19   47 1
    41   19   48 1
    42   21   22 1
    43   22   23 1
    44   22   49 1
    45   22   50 1
    46   23   28 ar
    47   23   24 ar
    48   24   25 ar
    49   24   51 1
    50   25   26 ar
    51   25   52 1
    52   26   27 ar
    53   26   30 1
    54   27   28 ar
    55   27   53 1
    56   28   29 1
