@<TRIPOS>MOLECULE
ZINC35666288
   63    66     0     0     0
SMALL
USER_CHARGES

@<TRIPOS>ATOM
      1 C1         -0.0690    1.2421   -0.2327 C.3       1 <0>        -0.1896
      2 C2          0.1596   -0.2696   -0.1734 C.3       1 <0>        -0.0109
      3 N1          0.7891   -0.6198    1.1069 N.4       1 <0>        -0.3853
      4 C3         -0.1359   -0.3132    2.2052 C.3       1 <0>        -0.0262
      5 C4          0.5611   -0.5701    3.5454 C.3       1 <0>         0.0974
      6 N2          1.0714   -1.9498    3.5487 N.pl3     1 <0>        -0.6121
      7 C5          1.8758   -2.3941    2.3999 C.3       1 <0>         0.0990
      8 C6          1.1168   -2.0511    1.1138 C.3       1 <0>        -0.0211
      9 C7          0.8026   -2.8062    4.6038 C.ar      1 <0>         0.4621
     10 C8          0.2236   -2.3223    5.7794 C.ar      1 <0>        -0.2492
     11 C9         -0.0272   -3.2122    6.8053 C.ar      1 <0>         0.1491
     12 N3          0.2862   -4.4898    6.6465 N.ar      1 <0>        -0.5222
     13 C10         0.8349   -4.9216    5.5201 C.ar      1 <0>         0.3507
     14 N4          1.0868   -4.1009    4.5104 N.ar      1 <0>        -0.5363
     15 S1          1.2336   -6.6303    5.3586 S.3       1 <0>         0.0584
     16 C11         0.7208   -7.3522    6.9417 C.3       1 <0>        -0.0356
     17 C12         1.0104   -8.8311    6.9367 C.2       1 <0>         0.0084
     18 C13         2.1591   -9.4095    7.3515 C.2       1 <0>        -0.1747
     19 C14         2.0101  -10.7945    7.1786 C.2       1 <0>        -0.1182
     20 C15         0.7624  -10.9934    6.6607 C.2       1 <0>        -0.0547
     21 O1          0.1694   -9.7891    6.5259 O.3       1 <0>        -0.1552
     22 C16         0.1692  -12.2895    6.3157 C.2       1 <0>         0.6012
     23 O2          0.8037  -13.3139    6.4865 O.2       1 <0>        -0.5124
     24 N5         -1.0785  -12.3462    5.8094 N.am      1 <0>        -0.7118
     25 C17        -1.6711  -13.6409    5.4647 C.3       1 <0>         0.1082
     26 C18        -3.0826  -13.4256    4.9149 C.3       1 <0>         0.0673
     27 H1         -3.6718  -12.8463    5.6258 H         1 <0>         0.0896
     28 C19        -3.7599  -14.7897    4.6622 C.3       1 <0>        -0.1485
     29 C20        -4.5261  -14.5365    3.3353 C.3       1 <0>        -0.1565
     30 C21        -3.5580  -13.5623    2.6180 C.3       1 <0>         0.0486
     31 O3         -3.0159  -12.7347    3.6620 O.3       1 <0>        -0.3778
     32 C22        -0.6502   -2.7352    8.0919 C.3       1 <0>         0.5240
     33 F1         -2.0432   -2.8200    7.9951 F         1 <0>        -0.1613
     34 F2         -0.2067   -3.5360    9.1498 F         1 <0>        -0.1537
     35 F3         -0.2790   -1.4067    8.3253 F         1 <0>        -0.1640
     36 H2          0.8872    1.7578   -0.1449 H         1 <0>         0.0819
     37 H3         -0.5361    1.5019   -1.1826 H         1 <0>         0.1083
     38 H4         -0.7209    1.5434    0.5873 H         1 <0>         0.0803
     39 H5         -0.7967   -0.7854   -0.2611 H         1 <0>         0.1294
     40 H6          0.8115   -0.5709   -0.9933 H         1 <0>         0.1336
     41 H7         -0.4360    0.7330    2.1463 H         1 <0>         0.1494
     42 H8         -1.0175   -0.9493    2.1262 H         1 <0>         0.1353
     43 H9          1.3899    0.1274    3.6668 H         1 <0>         0.1037
     44 H10        -0.1520   -0.4414    4.3597 H         1 <0>         0.1305
     45 H11         2.8374   -1.8809    2.4056 H         1 <0>         0.0968
     46 H12         2.0319   -3.4714    2.4568 H         1 <0>         0.1424
     47 H13         0.1973   -2.6347    1.0678 H         1 <0>         0.1345
     48 H14         1.7397   -2.2856    0.2506 H         1 <0>         0.1466
     49 H15        -0.0221   -1.2758    5.8838 H         1 <0>         0.1610
     50 H16         1.2718   -6.8768    7.7533 H         1 <0>         0.1343
     51 H17        -0.3477   -7.1916    7.0851 H         1 <0>         0.1213
     52 H18         3.0284   -8.9016    7.7422 H         1 <0>         0.1651
     53 H19         2.7408  -11.5553    7.4101 H         1 <0>         0.1687
     54 H20        -1.5842  -11.5297    5.6732 H         1 <0>         0.4090
     55 H21        -1.0577  -14.1316    4.7090 H         1 <0>         0.0788
     56 H22        -1.7198  -14.2669    6.3557 H         1 <0>         0.0854
     57 H23        -3.0149  -15.5753    4.5361 H         1 <0>         0.0846
     58 H24        -4.4511  -15.0349    5.4686 H         1 <0>         0.0894
     59 H25        -4.6458  -15.4597    2.7684 H         1 <0>         0.0879
     60 H26        -5.4908  -14.0648    3.5225 H         1 <0>         0.0808
     61 H27        -2.7616  -14.1171    2.1221 H         1 <0>         0.0632
     62 H28        -4.1012  -12.9522    1.8963 H         1 <0>         0.0875
     63 H29         1.6349   -0.0819    1.2226 H         1 <0>         0.4238
@<TRIPOS>BOND
     1    1    2 1
     2    1   36 1
     3    1   37 1
     4    1   38 1
     5    2    3 1
     6    2   39 1
     7    2   40 1
     8    3    8 1
     9    3    4 1
    10    3   63 1
    11    4    5 1
    12    4   41 1
    13    4   42 1
    14    5    6 1
    15    5   43 1
    16    5   44 1
    17    6    7 1
    18    6    9 1
    19    7    8 1
    20    7   45 1
    21    7   46 1
    22    8   47 1
    23    8   48 1
    24    9   14 ar
    25    9   10 ar
    26   10   11 ar
    27   10   49 1
    28   11   12 ar
    29   11   32 1
    30   12   13 ar
    31   13   14 ar
    32   13   15 1
    33   15   16 1
    34   16   17 1
    35   16   50 1
    36   16   51 1
    37   17   21 1
    38   17   18 2
    39   18   19 1
    40   18   52 1
    41   19   20 2
    42   19   53 1
    43   20   21 1
    44   20   22 1
    45   22   23 2
    46   22   24 am
    47   24   25 1
    48   24   54 1
    49   25   26 1
    50   25   55 1
    51   25   56 1
    52   26   27 1
    53   26   31 1
    54   26   28 1
    55   28   29 1
    56   28   57 1
    57   28   58 1
    58   29   30 1
    59   29   59 1
    60   29   60 1
    61   30   31 1
    62   30   61 1
    63   30   62 1
    64   32   33 1
    65   32   34 1
    66   32   35 1
