@<TRIPOS>MOLECULE
ZINC09613474
   53    56     0     0     0
SMALL
USER_CHARGES

@<TRIPOS>ATOM
      1 C1          0.9057   -4.9891    5.6503 C.3       1 <0>        -0.1212
      2 C2          0.7128   -4.7086    4.1822 C.ar      1 <0>        -0.0822
      3 C3          1.6988   -5.0582    3.2776 C.ar      1 <0>        -0.0860
      4 C4          1.5252   -4.8027    1.9317 C.ar      1 <0>        -0.1658
      5 C5          0.3585   -4.1936    1.4868 C.ar      1 <0>         0.1425
      6 C6         -0.6296   -3.8437    2.3979 C.ar      1 <0>        -0.0908
      7 C7         -0.4519   -4.1074    3.7421 C.ar      1 <0>        -0.0875
      8 C8         -1.8965   -3.1824    1.9199 C.3       1 <0>        -0.1169
      9 N1          0.1799   -3.9332    0.1262 N.pl3     1 <0>        -1.0509
     10 S1          0.8655   -4.9300   -1.0046 S.o2      1 <0>         2.6837
     11 O1          0.5920   -6.2617   -0.5913 O.2       1 <0>        -0.8992
     12 O2          0.4739   -4.4314   -2.2763 O.2       1 <0>        -0.9397
     13 C9          2.6113   -4.7176   -0.8963 C.ar      1 <0>        -0.7243
     14 C10         3.4158   -5.7799   -0.5327 C.ar      1 <0>         0.0913
     15 C11         4.7858   -5.6143   -0.4479 C.ar      1 <0>        -0.0825
     16 C12         5.3556   -4.3852   -0.7265 C.ar      1 <0>         0.0500
     17 C13         4.5571   -3.3189   -1.0902 C.ar      1 <0>        -0.1886
     18 C14         3.1806   -3.4834   -1.1819 C.ar      1 <0>         0.3059
     19 N2          2.3706   -2.4086   -1.5555 N.pl3     1 <0>        -0.5488
     20 N3          2.9485   -1.1705   -1.8655 N.pl3     1 <0>        -0.3246
     21 C15         3.4660   -0.9603   -3.0783 C.2       1 <0>         0.3397
     22 C16         3.4208   -1.8275   -4.1970 C.ar      1 <0>        -0.2400
     23 C17         2.8671   -3.0965   -4.4043 C.ar      1 <0>         0.0364
     24 C18         2.9902   -3.7032   -5.6389 C.ar      1 <0>        -0.1518
     25 C19         3.6581   -3.0620   -6.6699 C.ar      1 <0>         0.0460
     26 C20         4.2130   -1.8059   -6.4848 C.ar      1 <0>        -0.1500
     27 C21         4.1052   -1.1689   -5.2516 C.ar      1 <0>         0.2445
     28 N4          4.5533    0.0432   -4.8160 N.am      1 <0>        -0.6171
     29 C22         4.2183    0.2523   -3.5555 C.2       1 <0>         0.5616
     30 O3          4.4746    1.2446   -2.8981 O.2       1 <0>        -0.3891
     31 N5          5.6448   -6.7548   -0.0574 N.pl3     1 <0>         0.0280
     32 O4          5.1482   -7.8297    0.1869 O.2       1 <0>        -0.1308
     33 O5          6.8429   -6.6115    0.0172 O.3       1 <0>        -0.1367
     34 H1          0.4416   -5.9426    5.9020 H         1 <0>         0.0787
     35 H2          1.9714   -5.0332    5.8747 H         1 <0>         0.0701
     36 H3          0.4437   -4.1943    6.2358 H         1 <0>         0.0721
     37 H4          2.6056   -5.5314    3.6242 H         1 <0>         0.1328
     38 H5          2.2957   -5.0756    1.2259 H         1 <0>         0.1147
     39 H6         -1.2218   -3.8396    4.4507 H         1 <0>         0.1358
     40 H7         -2.6386   -3.9455    1.6854 H         1 <0>         0.0812
     41 H8         -2.2825   -2.5285    2.7020 H         1 <0>         0.0780
     42 H9         -1.6849   -2.5947    1.0266 H         1 <0>         0.0586
     43 H10        -0.3457   -3.1685   -0.1564 H         1 <0>         0.4254
     44 H11         2.9741   -6.7409   -0.3140 H         1 <0>         0.1916
     45 H12         6.4261   -4.2592   -0.6594 H         1 <0>         0.1780
     46 H13         5.0026   -2.3592   -1.3070 H         1 <0>         0.1502
     47 H14         1.4080   -2.5193   -1.6002 H         1 <0>         0.4472
     48 H15         2.9726   -0.4661   -1.1991 H         1 <0>         0.4705
     49 H16         2.3463   -3.5988   -3.6025 H         1 <0>         0.1517
     50 H17         2.5644   -4.6823   -5.8015 H         1 <0>         0.1647
     51 H18         3.7475   -3.5478   -7.6303 H         1 <0>         0.1691
     52 H19         4.7305   -1.3201   -7.2988 H         1 <0>         0.1666
     53 H20         5.0500    0.6723   -5.3624 H         1 <0>         0.4577
@<TRIPOS>BOND
     1    1    2 1
     2    1   34 1
     3    1   35 1
     4    1   36 1
     5    2    7 ar
     6    2    3 ar
     7    3    4 ar
     8    3   37 1
     9    4    5 ar
    10    4   38 1
    11    5    6 ar
    12    5    9 1
    13    6    7 ar
    14    6    8 1
    15    7   39 1
    16    8   40 1
    17    8   41 1
    18    8   42 1
    19    9   10 1
    20    9   43 1
    21   10   11 2
    22   10   12 2
    23   10   13 1
    24   13   18 ar
    25   13   14 ar
    26   14   15 ar
    27   14   44 1
    28   15   16 ar
    29   15   31 1
    30   16   17 ar
    31   16   45 1
    32   17   18 ar
    33   17   46 1
    34   18   19 1
    35   19   20 1
    36   19   47 1
    37   20   21 1
    38   20   48 1
    39   21   29 1
    40   21   22 2
    41   22   27 ar
    42   22   23 ar
    43   23   24 ar
    44   23   49 1
    45   24   25 ar
    46   24   50 1
    47   25   26 ar
    48   25   51 1
    49   26   27 ar
    50   26   52 1
    51   27   28 2
    52   28   29 am
    53   28   53 1
    54   29   30 2
    55   31   32 2
    56   31   33 1
