@<TRIPOS>MOLECULE
ZINC28814966
   58    61     0     0     0
SMALL
USER_CHARGES
N-[2-(5-chloro-2,3-dihydro-1,4-benzodioxin-7-yl)ethyl]-3-[3-(4-ethoxyphenyl)-5-thioxo-1H-1,2,4-triazol-4-yl]propanamide
@<TRIPOS>ATOM
      1 C1         -8.0975    5.2637   -2.3814 C.3       1 <0>        -0.1565
      2 C2         -6.9754    5.1783   -1.3448 C.3       1 <0>         0.0487
      3 O1         -7.2992    6.0027   -0.2233 O.3       1 <0>        -0.3084
      4 C3         -6.4005    6.0400    0.7947 C.ar      1 <0>         0.1642
      5 C4         -6.6541    6.8214    1.9143 C.ar      1 <0>        -0.1510
      6 C5         -5.7444    6.8618    2.9492 C.ar      1 <0>        -0.0231
      7 C6         -4.5673    6.1163    2.8707 C.ar      1 <0>        -0.0883
      8 C7         -4.3130    5.3370    1.7413 C.ar      1 <0>        -0.0596
      9 C8         -5.2302    5.2968    0.7130 C.ar      1 <0>        -0.2059
     10 C9         -3.5886    6.1569    3.9793 C.2       1 <0>         0.3280
     11 N1         -3.8460    6.5019    5.2100 N.2       1 <0>        -0.2810
     12 N2         -2.6548    6.4142    5.9434 N.pl3     1 <0>        -0.4803
     13 H1         -2.6478    6.6687    7.0135 H         1 <0>         0.5053
     14 C10        -1.6882    5.9986    5.0993 C.2       1 <0>         0.4837
     15 S1         -0.0451    5.7305    5.4981 S.2       1 <0>        -0.5784
     16 N3         -2.2497    5.8322    3.8853 N.pl3     1 <0>        -0.4907
     17 C11        -1.5571    5.3890    2.6729 C.3       1 <0>         0.1185
     18 C12        -1.5275    3.8599    2.6325 C.3       1 <0>        -0.1687
     19 C13        -0.8151    3.4040    1.3853 C.2       1 <0>         0.5246
     20 O2         -0.3744    4.2216    0.6054 O.2       1 <0>        -0.5358
     21 N4         -0.6676    2.0876    1.1364 N.am      1 <0>        -0.7388
     22 C14         0.0250    1.6444   -0.0761 C.3       1 <0>         0.1243
     23 C15         0.0546    0.1152   -0.1164 C.3       1 <0>        -0.0870
     24 C16         0.7671   -0.3407   -1.3636 C.ar      1 <0>        -0.0680
     25 C17         2.1340   -0.5449   -1.3417 C.ar      1 <0>        -0.1022
     26 C18         2.7927   -0.9655   -2.4875 C.ar      1 <0>         0.0664
     27 C19         2.0747   -1.1822   -3.6574 C.ar      1 <0>         0.0587
     28 C20         0.7029   -0.9742   -3.6736 C.ar      1 <0>        -0.0300
     29 C21         0.0517   -0.5594   -2.5258 C.ar      1 <0>        -0.1017
     30 Cl1        -0.1978   -1.2413   -5.1335 Cl        1 <0>        -0.0468
     31 O3          2.7008   -1.5992   -4.7920 O.3       1 <0>        -0.2952
     32 C22         4.1225   -1.4358   -4.8393 C.3       1 <0>         0.0157
     33 C23         4.7076   -1.9349   -3.5112 C.3       1 <0>         0.0173
     34 O4          4.1396   -1.1583   -2.4510 O.3       1 <0>        -0.2998
     35 H2         -7.8483    4.6291   -3.2446 H         1 <0>         0.0827
     36 H3         -8.2114    6.3062   -2.7134 H         1 <0>         0.0691
     37 H4         -9.0395    4.9172   -1.9314 H         1 <0>         0.0689
     38 H5         -6.8615    4.1358   -1.0128 H         1 <0>         0.0671
     39 H6         -6.0334    5.5248   -1.7948 H         1 <0>         0.0680
     40 H7         -7.5653    7.3980    1.9743 H         1 <0>         0.1447
     41 H8         -5.9423    7.4698    3.8196 H         1 <0>         0.1450
     42 H9         -3.4010    4.7623    1.6751 H         1 <0>         0.1383
     43 H10        -5.0363    4.6902   -0.1592 H         1 <0>         0.1397
     44 H11        -2.0881    5.7690    1.7876 H         1 <0>         0.1178
     45 H12        -0.5273    5.7757    2.6768 H         1 <0>         0.1284
     46 H13        -0.9965    3.4800    3.5177 H         1 <0>         0.1189
     47 H14        -2.5573    3.4732    2.6287 H         1 <0>         0.1013
     48 H15        -1.0673    1.3460    1.8437 H         1 <0>         0.4247
     49 H16        -0.5061    2.0243   -0.9613 H         1 <0>         0.0718
     50 H17         1.0548    2.0311   -0.0723 H         1 <0>         0.0728
     51 H18         0.5856   -0.2647    0.7689 H         1 <0>         0.0877
     52 H19        -0.9752   -0.2715   -0.1203 H         1 <0>         0.0869
     53 H20         2.6899   -0.3763   -0.4312 H         1 <0>         0.1427
     54 H21        -1.0167   -0.4021   -2.5390 H         1 <0>         0.1430
     55 H22         4.5312   -2.0214   -5.6760 H         1 <0>         0.1287
     56 H23         4.3648   -0.3725   -4.9831 H         1 <0>         0.0822
     57 H24         4.4575   -2.9976   -3.3767 H         1 <0>         0.0825
     58 H25         5.8009   -1.8143   -3.5238 H         1 <0>         0.1288
@<TRIPOS>BOND
     1    1    2 1
     2    1   35 1
     3    1   36 1
     4    1   37 1
     5    2    3 1
     6    2   38 1
     7    2   39 1
     8    3    4 1
     9    4    9 ar
    10    4    5 ar
    11    5    6 ar
    12    5   40 1
    13    6    7 ar
    14    6   41 1
    15    7    8 ar
    16    7   10 1
    17    8    9 ar
    18    8   42 1
    19    9   43 1
    20   10   16 1
    21   10   11 2
    22   11   12 1
    23   12   13 1
    24   12   14 1
    25   14   15 2
    26   14   16 1
    27   16   17 1
    28   17   18 1
    29   17   44 1
    30   17   45 1
    31   18   19 1
    32   18   46 1
    33   18   47 1
    34   19   20 2
    35   19   21 am
    36   21   22 1
    37   21   48 1
    38   22   23 1
    39   22   49 1
    40   22   50 1
    41   23   24 1
    42   23   51 1
    43   23   52 1
    44   24   29 ar
    45   24   25 ar
    46   25   26 ar
    47   25   53 1
    48   26   34 1
    49   26   27 ar
    50   27   28 ar
    51   27   31 1
    52   28   29 ar
    53   28   30 1
    54   29   54 1
    55   31   32 1
    56   32   33 1
    57   32   55 1
    58   32   56 1
    59   33   34 1
    60   33   57 1
    61   33   58 1
