@<TRIPOS>MOLECULE
ZINC63399333
   55    59     0     0     0
SMALL
USER_CHARGES

@<TRIPOS>ATOM
      1 C1          0.4362    1.3186    0.1725 C.ar      1 <0>        -0.1485
      2 C2          1.6659    1.9786    0.1231 C.ar      1 <0>         0.0482
      3 C3          2.8384    1.3019    0.0490 C.ar      1 <0>        -0.2052
      4 C4          2.8337   -0.1165    0.0198 C.ar      1 <0>         0.3152
      5 N1          3.8185   -0.9909   -0.0488 N.pl3     1 <0>        -0.5988
      6 C5          3.2624   -2.3474   -0.0485 C.3       1 <0>         0.0775
      7 C6          1.7607   -2.1835    0.0319 C.2       1 <0>         0.1329
      8 C7          1.5349   -0.8072    0.0721 C.ar      1 <0>        -0.1405
      9 C8          0.3551   -0.0367    0.1486 C.ar      1 <0>        -0.0116
     10 C9          0.7964   -3.2026    0.0598 C.2       1 <0>         0.2605
     11 N2         -0.4846   -3.0006    0.2212 N.2       1 <0>        -0.1742
     12 N3         -1.1954   -4.2064    0.2054 N.pl3     1 <0>        -0.5842
     13 C10        -0.2021   -5.2749    0.0074 C.3       1 <0>         0.3705
     14 H1         -0.4031   -5.8157   -0.9174 H         1 <0>         0.1383
     15 N4          1.0827   -4.5625   -0.0874 N.pl3     1 <0>        -0.6060
     16 C11         2.4035   -5.1621   -0.2931 C.3       1 <0>         0.0757
     17 C12         2.4536   -6.6257   -0.7360 C.3       1 <0>        -0.1632
     18 C13         2.8490   -6.2446    0.6920 C.3       1 <0>        -0.1930
     19 S1         -0.2045   -6.4131    1.4198 S.3       1 <0>        -0.1586
     20 C14         0.1740   -5.3505    2.8405 C.3       1 <0>        -0.1257
     21 C15         0.2029   -6.1826    4.0966 C.2       1 <0>         0.5305
     22 O1         -0.0107   -7.3752    4.0391 O.2       1 <0>        -0.4846
     23 N5          0.4662   -5.6017    5.2838 N.am      1 <0>        -0.6611
     24 C16         0.6100   -6.3903    6.4333 C.ar      1 <0>         0.1679
     25 C17         0.9933   -7.7181    6.3220 C.ar      1 <0>        -0.1119
     26 C18         1.1346   -8.4945    7.4572 C.ar      1 <0>        -0.0937
     27 C19         0.8947   -7.9511    8.7062 C.ar      1 <0>        -0.1095
     28 C20         0.5122   -6.6286    8.8271 C.ar      1 <0>        -0.1095
     29 C21         0.3735   -5.8402    7.6934 C.ar      1 <0>        -0.1195
     30 S2         -0.1075   -4.1518    7.8445 S.3       1 <0>        -0.0867
     31 C22        -0.2937   -3.9068    9.6322 C.3       1 <0>        -0.0142
     32 C23        -0.6989   -2.5168    9.8974 C.1       1 <0>         0.2105
     33 N6         -1.0117   -1.4440   10.1020 N.1       1 <0>        -0.3864
     34 H2         -0.4719    1.8999    0.2357 H         1 <0>         0.1560
     35 H3          1.6833    3.0583    0.1443 H         1 <0>         0.1610
     36 H4          3.7734    1.8412    0.0119 H         1 <0>         0.1609
     37 H5          3.5348   -2.8648   -0.9683 H         1 <0>         0.1722
     38 H6          3.6263   -2.9019    0.8165 H         1 <0>         0.1739
     39 H7         -0.6084   -0.5231    0.1883 H         1 <0>         0.1610
     40 H8         -2.1539   -4.3164    0.3053 H         1 <0>         0.4685
     41 H9          3.1687   -4.4912   -0.6836 H         1 <0>         0.1341
     42 H10         1.5040   -7.1425   -0.8744 H         1 <0>         0.1060
     43 H11         3.2519   -6.9179   -1.4183 H         1 <0>         0.1151
     44 H12         3.9074   -6.2862    0.9493 H         1 <0>         0.1089
     45 H13         2.1594   -6.5107    1.4931 H         1 <0>         0.1206
     46 H14         1.1463   -4.8803    2.6936 H         1 <0>         0.1116
     47 H15        -0.5919   -4.5804    2.9324 H         1 <0>         0.1143
     48 H16         0.5562   -4.6376    5.3427 H         1 <0>         0.4117
     49 H17         1.1812   -8.1461    5.3484 H         1 <0>         0.1512
     50 H18         1.4329   -9.5286    7.3684 H         1 <0>         0.1345
     51 H19         1.0062   -8.5622    9.5896 H         1 <0>         0.1339
     52 H20         0.3250   -6.2077    9.8039 H         1 <0>         0.1320
     53 H21        -1.0551   -4.5866   10.0147 H         1 <0>         0.1383
     54 H22         0.6560   -4.1092   10.1275 H         1 <0>         0.1378
     55 H23         4.7623   -0.7711   -0.0929 H         1 <0>         0.4552
@<TRIPOS>BOND
     1    1    9 ar
     2    1    2 ar
     3    1   34 1
     4    2    3 ar
     5    2   35 1
     6    3    4 ar
     7    3   36 1
     8    4    8 ar
     9    4    5 2
    10    5    6 1
    11    5   55 1
    12    6    7 1
    13    6   37 1
    14    6   38 1
    15    7    8 2
    16    7   10 1
    17    8    9 ar
    18    9   39 1
    19   10   15 1
    20   10   11 2
    21   11   12 1
    22   12   13 1
    23   12   40 1
    24   13   14 1
    25   13   15 1
    26   13   19 1
    27   15   16 1
    28   16   18 1
    29   16   17 1
    30   16   41 1
    31   17   18 1
    32   17   42 1
    33   17   43 1
    34   18   44 1
    35   18   45 1
    36   19   20 1
    37   20   21 1
    38   20   46 1
    39   20   47 1
    40   21   22 2
    41   21   23 am
    42   23   24 1
    43   23   48 1
    44   24   29 ar
    45   24   25 ar
    46   25   26 ar
    47   25   49 1
    48   26   27 ar
    49   26   50 1
    50   27   28 ar
    51   27   51 1
    52   28   29 ar
    53   28   52 1
    54   29   30 1
    55   30   31 1
    56   31   32 1
    57   31   53 1
    58   31   54 1
    59   32   33 3
