@<TRIPOS>MOLECULE
ZINC58948337
   48    49     0     0     0
SMALL
USER_CHARGES

@<TRIPOS>ATOM
      1 C1         -0.0184    1.5028    0.0103 C.3       1 <0>        -0.1077
      2 C2          0.0021   -0.0041    0.0020 C.ar      1 <0>        -0.1388
      3 C3          0.0057   -0.6874   -1.2004 C.ar      1 <0>        -0.0770
      4 C4          0.0244   -2.0681   -1.2116 C.ar      1 <0>        -0.1926
      5 C5          0.0396   -2.7708   -0.0132 C.ar      1 <0>         0.2109
      6 C6          0.0359   -2.0814    1.1925 C.ar      1 <0>        -0.1519
      7 C7          0.0229   -0.7002    1.1965 C.ar      1 <0>        -0.0729
      8 C8          0.0518   -2.8394    2.4949 C.3       1 <0>        -0.1086
      9 N1          0.0581   -4.1674   -0.0209 N.pl3     1 <0>        -0.7373
     10 C9          0.0614   -4.8929   -1.2936 C.3       1 <0>         0.1189
     11 C10         0.0824   -6.3759   -1.0264 C.2       1 <0>         0.5058
     12 O1          0.0935   -6.7863    0.1148 O.2       1 <0>        -0.5370
     13 N2          0.0889   -7.2460   -2.0556 N.am      1 <0>        -0.5127
     14 N3          0.1084   -8.6247   -1.8072 N.pl3     1 <0>        -0.5451
     15 C11         0.1151   -9.5259   -2.8731 C.2       1 <0>         0.2256
     16 C12         0.1356  -10.9762   -2.6166 C.2       1 <0>        -0.2792
     17 C13         0.5258  -11.8129   -3.5820 C.2       1 <0>         0.1517
     18 O2          0.5440  -13.1474   -3.3524 O.3       1 <0>        -0.4732
     19 C14         0.9450  -11.2763   -4.9249 C.3       1 <0>        -0.0720
     20 C15         0.1060  -10.0505   -5.2825 C.3       1 <0>         0.0053
     21 C16         0.0974   -9.0771   -4.1339 C.2       1 <0>        -0.2911
     22 C17        -1.3293  -10.4873   -5.5825 C.3       1 <0>        -0.1417
     23 C18         0.6978   -9.3734   -6.5203 C.3       1 <0>        -0.1371
     24 H1          1.0042    1.8801    0.0026 H         1 <0>         0.0644
     25 H2         -0.5455    1.8639   -0.8728 H         1 <0>         0.0622
     26 H3         -0.5286    1.8543    0.9071 H         1 <0>         0.0619
     27 H4         -0.0065   -0.1406   -2.1317 H         1 <0>         0.1205
     28 H5          0.0269   -2.6011   -2.1509 H         1 <0>         0.1199
     29 H6          0.0244   -0.1634    2.1336 H         1 <0>         0.1213
     30 H7          1.0832   -3.0085    2.8043 H         1 <0>         0.0666
     31 H8         -0.4663   -2.2598    3.2590 H         1 <0>         0.0678
     32 H9         -0.4499   -3.7980    2.3635 H         1 <0>         0.0599
     33 H10         0.0687   -4.6569    0.8164 H         1 <0>         0.4116
     34 H11        -0.8348   -4.6383   -1.8594 H         1 <0>         0.0950
     35 H12         0.9450   -4.6147   -1.8681 H         1 <0>         0.0952
     36 H13         0.0801   -6.9178   -2.9683 H         1 <0>         0.4248
     37 H14        -0.1630  -11.3612   -1.6528 H         1 <0>         0.1249
     38 H15         0.1172   -8.9530   -0.8945 H         1 <0>         0.4304
     39 H16         1.9979  -10.9965   -4.8900 H         1 <0>         0.0931
     40 H17         0.8018  -12.0464   -5.6829 H         1 <0>         0.0896
     41 H18         0.0802   -8.0147   -4.3277 H         1 <0>         0.1058
     42 H19        -1.7522  -10.9740   -4.7037 H         1 <0>         0.0537
     43 H20        -1.9291   -9.6137   -5.8378 H         1 <0>         0.0577
     44 H21        -1.3293  -11.1852   -6.4197 H         1 <0>         0.0551
     45 H22         0.6928  -10.0742   -7.3552 H         1 <0>         0.0580
     46 H23         0.1002   -8.4986   -6.7767 H         1 <0>         0.0600
     47 H24         1.7221   -9.0650   -6.3110 H         1 <0>         0.0576
     48 H25         0.2584  -13.3974   -2.4631 H         1 <0>         0.4003
@<TRIPOS>BOND
     1    1    2 1
     2    1   24 1
     3    1   25 1
     4    1   26 1
     5    2    7 ar
     6    2    3 ar
     7    3    4 ar
     8    3   27 1
     9    4    5 ar
    10    4   28 1
    11    5    6 ar
    12    5    9 1
    13    6    7 ar
    14    6    8 1
    15    7   29 1
    16    8   30 1
    17    8   31 1
    18    8   32 1
    19    9   10 1
    20    9   33 1
    21   10   11 1
    22   10   34 1
    23   10   35 1
    24   11   12 2
    25   11   13 am
    26   13   36 1
    27   13   14 1
    28   14   15 1
    29   14   38 1
    30   15   16 1
    31   15   21 2
    32   16   17 2
    33   16   37 1
    34   17   18 1
    35   17   19 1
    36   18   48 1
    37   19   20 1
    38   19   39 1
    39   19   40 1
    40   20   21 1
    41   20   22 1
    42   20   23 1
    43   21   41 1
    44   22   42 1
    45   22   43 1
    46   22   44 1
    47   23   45 1
    48   23   46 1
    49   23   47 1
