@<TRIPOS>MOLECULE
ZINC24580859
   60    63     0     0     0
SMALL
USER_CHARGES
2-[4-(5-chloro-6-oxo-1-phenyl-pyridazin-4-yl)piperazin-1-yl]-N-(2-cyanoethyl)-N-(2-fluorophenyl)acetamide
@<TRIPOS>ATOM
      1 C1         11.1948   -5.4096    0.7195 C.ar      1 <0>        -0.1010
      2 C2          9.9457   -5.7830    0.2583 C.ar      1 <0>        -0.1083
      3 C3          8.8969   -4.8854    0.2969 C.ar      1 <0>        -0.0971
      4 C4          9.0978   -3.6060    0.7991 C.ar      1 <0>         0.1194
      5 C5         10.3552   -3.2321    1.2558 C.ar      1 <0>        -0.0894
      6 C6         11.3981   -4.1368    1.2206 C.ar      1 <0>        -0.1048
      7 N1          8.0373   -2.6940    0.8396 N.am      1 <0>        -0.3488
      8 C7          7.7908   -2.0059    1.9717 C.2       1 <0>         0.5019
      9 O1          8.4892   -2.1768    2.9592 O.2       1 <0>        -0.4804
     10 C8          6.7275   -1.0928    2.0093 C.2       1 <0>        -0.0481
     11 C9          5.9519   -0.9187    0.8770 C.2       1 <0>         0.0985
     12 C10         6.2440   -1.6651   -0.2841 C.2       1 <0>         0.0459
     13 N2          7.2423   -2.5041   -0.2954 N.2       1 <0>        -0.1800
     14 N3          4.8945   -0.0239    0.8849 N.pl3     1 <0>        -0.4965
     15 C11         5.0867    1.0274   -0.1238 C.3       1 <0>         0.0263
     16 C12         3.9404    2.0372   -0.0291 C.3       1 <0>         0.0021
     17 N4          2.6614    1.3429   -0.2333 N.4       1 <0>        -0.3923
     18 C13         2.4692    0.2916    0.7754 C.3       1 <0>        -0.0058
     19 C14         3.6155   -0.7181    0.6807 C.3       1 <0>         0.0307
     20 C15         1.5401    2.2919   -0.2249 C.3       1 <0>        -0.0318
     21 C16         0.2852    1.5907   -0.6772 C.2       1 <0>         0.5087
     22 O2          0.3213    0.4160   -0.9771 O.2       1 <0>        -0.5050
     23 N5         -0.8762    2.2703   -0.7538 N.am      1 <0>        -0.5400
     24 C17        -0.9199    3.6891   -0.3916 C.3       1 <0>         0.0972
     25 C18        -0.6358    4.5407   -1.6305 C.3       1 <0>        -0.0465
     26 C19        -0.6797    5.9664   -1.2665 C.1       1 <0>         0.1876
     27 N6         -0.7136    7.0666   -0.9857 N.1       1 <0>        -0.3947
     28 C20        -2.0412    1.6201   -1.1797 C.ar      1 <0>         0.0751
     29 C21        -2.8662    0.9944   -0.2552 C.ar      1 <0>        -0.0733
     30 C22        -4.0177    0.3587   -0.6775 C.ar      1 <0>        -0.1168
     31 C23        -4.3441    0.3349   -2.0210 C.ar      1 <0>        -0.0676
     32 C24        -3.5227    0.9517   -2.9464 C.ar      1 <0>        -0.1434
     33 C25        -2.3712    1.5949   -2.5302 C.ar      1 <0>         0.1141
     34 F1         -1.5682    2.1974   -3.4343 F         1 <0>        -0.1316
     35 Cl1         6.3888   -0.1943    3.4556 Cl        1 <0>         0.0264
     36 H1         12.0132   -6.1136    0.6886 H         1 <0>         0.1345
     37 H2          9.7901   -6.7779   -0.1320 H         1 <0>         0.1363
     38 H3          7.9215   -5.1779   -0.0628 H         1 <0>         0.1299
     39 H4         10.5158   -2.2367    1.6428 H         1 <0>         0.1295
     40 H5         12.3748   -3.8482    1.5800 H         1 <0>         0.1368
     41 H6          5.6402   -1.5374   -1.1704 H         1 <0>         0.1977
     42 H7          6.0434    1.5391    0.0576 H         1 <0>         0.1335
     43 H8          5.0969    0.5758   -1.1268 H         1 <0>         0.0763
     44 H9          3.9483    2.5087    0.9647 H         1 <0>         0.1442
     45 H10         4.0671    2.8094   -0.8022 H         1 <0>         0.1464
     46 H11         2.4590    0.7433    1.7783 H         1 <0>         0.1387
     47 H12         1.5125   -0.2201    0.5940 H         1 <0>         0.1553
     48 H13         3.6089   -1.1897   -0.3131 H         1 <0>         0.0770
     49 H14         3.4899   -1.4904    1.4539 H         1 <0>         0.1312
     50 H15         1.3961    2.6803    0.7941 H         1 <0>         0.1655
     51 H16         1.7604    3.1259   -0.9075 H         1 <0>         0.1661
     52 H17        -1.9166    3.9363    0.0026 H         1 <0>         0.1152
     53 H18        -0.1603    3.8949    0.3769 H         1 <0>         0.1019
     54 H19         0.3609    4.2934   -2.0247 H         1 <0>         0.1096
     55 H20        -1.3954    4.3349   -2.3990 H         1 <0>         0.1232
     56 H21        -2.6103    1.0083    0.7940 H         1 <0>         0.1375
     57 H22        -4.6617   -0.1245    0.0424 H         1 <0>         0.1423
     58 H23        -5.2426   -0.1671   -2.3482 H         1 <0>         0.1445
     59 H24        -3.7802    0.9310   -3.9951 H         1 <0>         0.1474
     60 H25         2.6894    0.8632   -1.2228 H         1 <0>         0.4488
@<TRIPOS>BOND
     1    1    6 ar
     2    1    2 ar
     3    1   36 1
     4    2    3 ar
     5    2   37 1
     6    3    4 ar
     7    3   38 1
     8    4    5 ar
     9    4    7 1
    10    5    6 ar
    11    5   39 1
    12    6   40 1
    13    7   13 1
    14    7    8 am
    15    8    9 2
    16    8   10 1
    17   10   11 2
    18   10   35 1
    19   11   12 1
    20   11   14 1
    21   12   13 2
    22   12   41 1
    23   14   19 1
    24   14   15 1
    25   15   16 1
    26   15   42 1
    27   15   43 1
    28   16   17 1
    29   16   44 1
    30   16   45 1
    31   17   18 1
    32   17   20 1
    33   17   60 1
    34   18   19 1
    35   18   46 1
    36   18   47 1
    37   19   48 1
    38   19   49 1
    39   20   21 1
    40   20   50 1
    41   20   51 1
    42   21   22 2
    43   21   23 am
    44   23   24 1
    45   23   28 1
    46   24   25 1
    47   24   52 1
    48   24   53 1
    49   25   26 1
    50   25   54 1
    51   25   55 1
    52   26   27 3
    53   28   33 ar
    54   28   29 ar
    55   29   30 ar
    56   29   56 1
    57   30   31 ar
    58   30   57 1
    59   31   32 ar
    60   31   58 1
    61   32   33 ar
    62   32   59 1
    63   33   34 1
