@<TRIPOS>MOLECULE
ZINC39991895
   67    71     0     0     0
SMALL
USER_CHARGES

@<TRIPOS>ATOM
      1 C1         -0.0614    1.3171   -0.0328 C.3       1 <0>        -0.1217
      2 C2         -0.0158   -0.1875    0.0384 C.ar      1 <0>        -0.0500
      3 C3         -0.0101   -0.9347   -1.1232 C.ar      1 <0>        -0.1068
      4 C4          0.0322   -2.3153   -1.0589 C.ar      1 <0>        -0.0741
      5 C5          0.0691   -2.9528    0.1681 C.ar      1 <0>        -0.1081
      6 C6          0.0637   -2.2119    1.3332 C.ar      1 <0>        -0.0901
      7 C7          0.0265   -0.8243    1.2721 C.ar      1 <0>         0.0979
      8 N1          0.0267   -0.0712    2.4492 N.pl3     1 <0>        -0.5326
      9 C8         -1.1527    0.3631    3.2168 C.3       1 <0>         0.3774
     10 H1         -1.7873    1.0091    2.6101 H         1 <0>         0.1588
     11 N2         -0.5815    1.1143    4.3480 N.pl3     1 <0>        -0.6101
     12 N3          0.8081    1.0740    4.1805 N.pl3     1 <0>        -0.4192
     13 C9          1.1380    0.4083    3.1265 C.cat     1 <0>         0.6956
     14 N4          2.4483    0.1998    2.7168 N.pl3     1 <0>        -0.5940
     15 C10         3.4710    1.2438    2.8888 C.3       1 <0>         0.0785
     16 C11         4.6898    0.6181    3.5764 C.3       1 <0>         0.0441
     17 O1          5.0896   -0.5495    2.8547 O.3       1 <0>        -0.3611
     18 C12         4.1042   -1.5848    2.8245 C.3       1 <0>         0.0471
     19 C13         2.8566   -1.0740    2.1035 C.3       1 <0>         0.0793
     20 S1         -2.0903   -1.0722    3.8096 S.3       1 <0>        -0.0874
     21 C14        -0.9067   -1.9700    4.8506 C.3       1 <0>        -0.1399
     22 C15        -1.5669   -3.2019    5.4142 C.2       1 <0>         0.5392
     23 O2         -2.7222   -3.4498    5.1405 O.2       1 <0>        -0.4929
     24 N5         -0.8736   -4.0282    6.2223 N.am      1 <0>        -0.7189
     25 C16        -1.5154   -5.2257    6.7701 C.3       1 <0>         0.3494
     26 H2         -2.5998   -5.1273    6.7196 H         1 <0>         0.1458
     27 C17        -1.0825   -5.4417    8.1845 C.2       1 <0>        -0.2309
     28 C18        -0.1699   -6.4294    8.2049 C.2       1 <0>        -0.0925
     29 C19         0.4518   -6.8887    9.4960 C.3       1 <0>         0.1240
     30 H3          1.4836   -7.1912    9.3173 H         1 <0>         0.1267
     31 N6          0.4238   -5.7778   10.4565 N.3       1 <0>        -0.4440
     32 N7         -0.7590   -5.1163   10.5372 N.am      1 <0>        -0.5585
     33 C20        -1.4881   -4.7915    9.4407 C.2       1 <0>         0.5624
     34 O3         -2.4192   -4.0108    9.4924 O.2       1 <0>        -0.5037
     35 C21        -0.3405   -8.0727   10.0539 C.3       1 <0>        -0.1422
     36 C22         0.0412   -6.8967    6.7974 C.3       1 <0>         0.0913
     37 H4          0.0646   -7.9859    6.7623 H         1 <0>         0.1267
     38 O4         -1.0869   -6.3978    6.0428 O.3       1 <0>        -0.3397
     39 C23         1.3459   -6.3232    6.2408 C.3       1 <0>        -0.1604
     40 H5          0.9547    1.7101   -0.0695 H         1 <0>         0.0768
     41 H6         -0.6016    1.6223   -0.9290 H         1 <0>         0.0854
     42 H7         -0.5702    1.7073    0.8486 H         1 <0>         0.0601
     43 H8         -0.0392   -0.4401   -2.0829 H         1 <0>         0.1417
     44 H9          0.0362   -2.8972   -1.9687 H         1 <0>         0.1415
     45 H10         0.1017   -4.0313    0.2147 H         1 <0>         0.1421
     46 H11         0.0924   -2.7104    2.2909 H         1 <0>         0.1262
     47 H12        -1.0697    1.5494    5.0644 H         1 <0>         0.4771
     48 H13         3.7610    1.6376    1.9147 H         1 <0>         0.1098
     49 H14         3.0736    2.0486    3.5072 H         1 <0>         0.0952
     50 H15         5.5094    1.3366    3.5892 H         1 <0>         0.1262
     51 H16         4.4298    0.3430    4.5986 H         1 <0>         0.0637
     52 H17         4.5024   -2.4511    2.2962 H         1 <0>         0.1259
     53 H18         3.8421   -1.8679    3.8439 H         1 <0>         0.0618
     54 H19         2.0525   -1.8033    2.2021 H         1 <0>         0.1028
     55 H20         3.0837   -0.9175    1.0489 H         1 <0>         0.1025
     56 H21        -0.0442   -2.2619    4.2514 H         1 <0>         0.1047
     57 H22        -0.5805   -1.3266    5.6678 H         1 <0>         0.1167
     58 H23         0.0503   -3.8299    6.4412 H         1 <0>         0.3954
     59 H24         1.1857   -5.1373   10.2909 H         1 <0>         0.3522
     60 H25        -1.0955   -4.8668   11.4121 H         1 <0>         0.4315
     61 H26        -0.3265   -8.8909    9.3338 H         1 <0>         0.0734
     62 H27         0.1113   -8.4039   10.9890 H         1 <0>         0.0847
     63 H28        -1.3706   -7.7669   10.2365 H         1 <0>         0.0616
     64 H29         2.1812   -6.6564    6.8567 H         1 <0>         0.0789
     65 H30         1.4879   -6.6701    5.2173 H         1 <0>         0.0805
     66 H31         1.2980   -5.2343    6.2520 H         1 <0>         0.0519
     67 H32         1.4430    1.4906    4.7840 H         1 <0>         0.4643
@<TRIPOS>BOND
     1    1    2 1
     2    1   40 1
     3    1   41 1
     4    1   42 1
     5    2    7 ar
     6    2    3 ar
     7    3    4 ar
     8    3   43 1
     9    4    5 ar
    10    4   44 1
    11    5    6 ar
    12    5   45 1
    13    6    7 ar
    14    6   46 1
    15    7    8 1
    16    8   13 1
    17    8    9 1
    18    9   10 1
    19    9   11 1
    20    9   20 1
    21   11   12 1
    22   11   47 1
    23   12   13 2
    24   12   67 1
    25   13   14 1
    26   14   19 1
    27   14   15 1
    28   15   16 1
    29   15   48 1
    30   15   49 1
    31   16   17 1
    32   16   50 1
    33   16   51 1
    34   17   18 1
    35   18   19 1
    36   18   52 1
    37   18   53 1
    38   19   54 1
    39   19   55 1
    40   20   21 1
    41   21   22 1
    42   21   56 1
    43   21   57 1
    44   22   23 2
    45   22   24 am
    46   24   25 1
    47   24   58 1
    48   25   26 1
    49   25   38 1
    50   25   27 1
    51   27   33 1
    52   27   28 2
    53   28   29 1
    54   28   36 1
    55   29   30 1
    56   29   31 1
    57   29   35 1
    58   31   32 1
    59   31   59 1
    60   32   33 am
    61   32   60 1
    62   33   34 2
    63   35   61 1
    64   35   62 1
    65   35   63 1
    66   36   37 1
    67   36   38 1
    68   36   39 1
    69   39   64 1
    70   39   65 1
    71   39   66 1
