@<TRIPOS>MOLECULE
ZINC16426201
   82    84     0     0     0
SMALL
USER_CHARGES
(3R)-N-(2-dimethylaminoethyl)-3,5,5-trimethyl-N-[(1S)-1-[3-(m-tolyl)-4-oxo-quinazolin-2-yl]propyl]hexanamide
@<TRIPOS>ATOM
      1 C1          1.7227    1.5296   -1.6033 C.3       1 <0>        -0.1575
      2 C2          0.3386    1.0352   -1.1780 C.3       1 <0>        -0.1276
      3 C3          0.4392   -0.4154   -0.7021 C.3       1 <0>         0.1796
      4 H1          1.1607   -0.4814    0.1122 H         1 <0>         0.1422
      5 C4         -0.9099   -0.8795   -0.2168 C.2       1 <0>         0.3933
      6 N1         -1.9205   -0.7903   -1.0271 N.2       1 <0>        -0.5233
      7 C5         -3.1641   -1.1884   -0.6596 C.ar      1 <0>         0.1430
      8 C6         -4.2510   -1.0929   -1.5311 C.ar      1 <0>        -0.1142
      9 C7         -5.4960   -1.5093   -1.1166 C.ar      1 <0>        -0.0681
     10 C8         -5.6859   -2.0240    0.1593 C.ar      1 <0>        -0.1281
     11 C9         -4.6293   -2.1287    1.0370 C.ar      1 <0>        -0.0358
     12 C10        -3.3608   -1.7125    0.6374 C.ar      1 <0>        -0.1878
     13 C11        -2.1966   -1.8003    1.5306 C.2       1 <0>         0.5445
     14 O1         -2.2983   -2.2422    2.6603 O.2       1 <0>        -0.4791
     15 N2         -1.0061   -1.3759    1.0463 N.am      1 <0>        -0.4889
     16 C12         0.1358   -1.4432    1.8545 C.ar      1 <0>         0.0925
     17 C13         0.6537   -0.2877    2.4250 C.ar      1 <0>        -0.1166
     18 C14         1.7794   -0.3575    3.2217 C.ar      1 <0>        -0.0985
     19 C15         2.3912   -1.5764    3.4517 C.ar      1 <0>        -0.0956
     20 C16         1.8781   -2.7285    2.8852 C.ar      1 <0>        -0.0601
     21 C17         0.7492   -2.6661    2.0916 C.ar      1 <0>        -0.0842
     22 C18         2.5475   -4.0546    3.1388 C.3       1 <0>        -0.1177
     23 N3          0.8772   -1.2645   -1.8128 N.am      1 <0>        -0.5984
     24 C19         0.0713   -1.3475   -3.0334 C.3       1 <0>         0.0653
     25 C20         0.5235   -0.2668   -4.0175 C.3       1 <0>        -0.0408
     26 C21        -1.6877   -0.0105   -4.9700 C.3       1 <0>        -0.0500
     27 C22         0.2698    0.5074   -6.2976 C.3       1 <0>        -0.0425
     28 C23         2.0216   -1.9692   -1.7116 C.2       1 <0>         0.5115
     29 O2          2.6887   -1.9004   -0.7011 O.2       1 <0>        -0.4873
     30 C24         2.4722   -2.8425   -2.8540 C.3       1 <0>        -0.1346
     31 C25         3.7900   -3.5264   -2.4842 C.3       1 <0>        -0.0799
     32 H2          3.6679   -4.0671   -1.5457 H         1 <0>         0.0877
     33 C26         4.8856   -2.4703   -2.3255 C.3       1 <0>        -0.1726
     34 C27         4.1835   -4.5073   -3.5905 C.3       1 <0>        -0.1036
     35 C28         5.1583   -5.5445   -3.0294 C.3       1 <0>        -0.0668
     36 C29         4.4545   -6.3779   -1.9566 C.3       1 <0>        -0.1464
     37 C30         5.6325   -6.4619   -4.1583 C.3       1 <0>        -0.1441
     38 C31         6.3628   -4.8309   -2.4121 C.3       1 <0>        -0.1504
     39 H3          2.4054    1.4718   -0.7556 H         1 <0>         0.0690
     40 H4          2.0976    0.9061   -2.4150 H         1 <0>         0.0521
     41 H5          1.6510    2.5630   -1.9423 H         1 <0>         0.0684
     42 H6         -0.3442    1.0930   -2.0258 H         1 <0>         0.0772
     43 H7         -0.0364    1.6587   -0.3664 H         1 <0>         0.0866
     44 H8         -4.1156   -0.6940   -2.5256 H         1 <0>         0.1346
     45 H9         -6.3354   -1.4350   -1.7921 H         1 <0>         0.1387
     46 H10        -6.6704   -2.3454    0.4659 H         1 <0>         0.1398
     47 H11        -4.7830   -2.5298    2.0280 H         1 <0>         0.1422
     48 H12         0.1762    0.6643    2.2460 H         1 <0>         0.1256
     49 H13         2.1824    0.5407    3.6659 H         1 <0>         0.1361
     50 H14         3.2713   -1.6284    4.0755 H         1 <0>         0.1334
     51 H15         0.3464   -3.5669    1.6527 H         1 <0>         0.1200
     52 H16         2.1148   -4.5162    4.0264 H         1 <0>         0.0770
     53 H17         2.3967   -4.7080    2.2794 H         1 <0>         0.0671
     54 H18         3.6151   -3.8989    3.2940 H         1 <0>         0.0743
     55 H19         0.2004   -2.3298   -3.4878 H         1 <0>         0.0993
     56 H20        -0.9795   -1.1969   -2.7859 H         1 <0>         0.1346
     57 H21         0.3945    0.7155   -3.5631 H         1 <0>         0.1435
     58 H22         1.5743   -0.4174   -4.2650 H         1 <0>         0.1298
     59 H23        -1.7468    1.0059   -4.5807 H         1 <0>         0.1258
     60 H24        -2.2635   -0.0801   -5.8929 H         1 <0>         0.1252
     61 H25        -2.0941   -0.7053   -4.2350 H         1 <0>         0.1248
     62 H26         1.2865    0.1891   -6.5278 H         1 <0>         0.1216
     63 H27        -0.3475    0.4268   -7.1924 H         1 <0>         0.1254
     64 H28         0.2816    1.5425   -5.9564 H         1 <0>         0.1239
     65 H29         1.7137   -3.5994   -3.0539 H         1 <0>         0.0946
     66 H30         2.6178   -2.2302   -3.7439 H         1 <0>         0.0878
     67 H31         4.5369   -1.6825   -1.6578 H         1 <0>         0.0660
     68 H32         5.7786   -2.9334   -1.9058 H         1 <0>         0.0807
     69 H33         5.1219   -2.0426   -3.2999 H         1 <0>         0.0452
     70 H34         3.2918   -5.0111   -3.9635 H         1 <0>         0.0598
     71 H35         4.6612   -3.9633   -4.4054 H         1 <0>         0.0640
     72 H36         3.5964   -6.8863   -2.3963 H         1 <0>         0.0527
     73 H37         5.1489   -7.1168   -1.5568 H         1 <0>         0.0573
     74 H38         4.1167   -5.7243   -1.1523 H         1 <0>         0.0573
     75 H39         6.1339   -5.8682   -4.9226 H         1 <0>         0.0545
     76 H40         6.3270   -7.2008   -3.7585 H         1 <0>         0.0579
     77 H41         4.7744   -6.9703   -4.5980 H         1 <0>         0.0534
     78 H42         6.0679   -4.3691   -1.4699 H         1 <0>         0.0661
     79 H43         7.1585   -5.5531   -2.2294 H         1 <0>         0.0537
     80 H44         6.7200   -4.0622   -3.0974 H         1 <0>         0.0577
     81 N4         -0.2837   -0.3772   -5.2508 N.4       1 <0>        -0.3937
     82 H45        -0.2527   -1.3480   -5.5838 H         1 <0>         0.4300
@<TRIPOS>BOND
     1    1    2 1
     2    1   39 1
     3    1   40 1
     4    1   41 1
     5    2    3 1
     6    2   42 1
     7    2   43 1
     8    3    4 1
     9    3    5 1
    10    3   23 1
    11    5   15 1
    12    5    6 2
    13    6    7 1
    14    7   12 ar
    15    7    8 ar
    16    8    9 ar
    17    8   44 1
    18    9   10 ar
    19    9   45 1
    20   10   11 ar
    21   10   46 1
    22   11   12 ar
    23   11   47 1
    24   12   13 1
    25   13   14 2
    26   13   15 am
    27   15   16 1
    28   16   21 ar
    29   16   17 ar
    30   17   18 ar
    31   17   48 1
    32   18   19 ar
    33   18   49 1
    34   19   20 ar
    35   19   50 1
    36   20   21 ar
    37   20   22 1
    38   21   51 1
    39   22   52 1
    40   22   53 1
    41   22   54 1
    42   23   24 1
    43   23   28 am
    44   24   25 1
    45   24   55 1
    46   24   56 1
    47   25   57 1
    48   25   58 1
    49   25   81 1
    50   26   59 1
    51   26   60 1
    52   26   61 1
    53   26   81 1
    54   27   62 1
    55   27   63 1
    56   27   64 1
    57   27   81 1
    58   28   29 2
    59   28   30 1
    60   30   31 1
    61   30   65 1
    62   30   66 1
    63   31   32 1
    64   31   33 1
    65   31   34 1
    66   33   67 1
    67   33   68 1
    68   33   69 1
    69   34   35 1
    70   34   70 1
    71   34   71 1
    72   35   36 1
    73   35   37 1
    74   35   38 1
    75   36   72 1
    76   36   73 1
    77   36   74 1
    78   37   75 1
    79   37   76 1
    80   37   77 1
    81   38   78 1
    82   38   79 1
    83   38   80 1
    84   81   82 1
