@<TRIPOS>MOLECULE
ZINC08915434
   48    51     0     0     0
SMALL
USER_CHARGES

@<TRIPOS>ATOM
      1 C1         -0.0167    1.3790    0.0096 C.ar      1 <0>        -0.1015
      2 C2          1.1668    2.0884    0.0021 C.ar      1 <0>        -0.0933
      3 C3          2.3853    1.4078   -0.0132 C.ar      1 <0>        -0.0090
      4 C4          2.3983    0.0120   -0.0208 C.ar      1 <0>        -0.0870
      5 C5          1.2074   -0.6861   -0.0132 C.ar      1 <0>        -0.0308
      6 C6          0.0021   -0.0041    0.0020 C.ar      1 <0>        -0.0992
      7 Cl1         1.2205   -2.4220   -0.0227 Cl        1 <0>        -0.0584
      8 C7          3.6563    2.1619   -0.0218 C.2       1 <0>         0.0539
      9 C8          4.9040    1.6222   -0.0421 C.2       1 <0>        -0.1872
     10 C9          5.8123    2.6997   -0.0441 C.2       1 <0>        -0.1669
     11 C10         5.0819    3.8317   -0.0250 C.2       1 <0>        -0.0439
     12 O1          3.7797    3.5031   -0.0166 O.3       1 <0>        -0.1491
     13 C11         5.6342    5.2338   -0.0189 C.3       1 <0>         0.2238
     14 H1          6.6701    5.2158    0.3199 H         1 <0>         0.1429
     15 C12         5.5686    5.8163   -1.4348 C.3       1 <0>        -0.1562
     16 H2          6.2263    5.2503   -2.0943 H         1 <0>         0.1487
     17 C13         6.0259    7.2780   -1.3826 C.3       1 <0>         0.3395
     18 N1          5.2086    8.0025   -0.4081 N.am      1 <0>        -0.7271
     19 C14         4.6728    7.3807    0.6528 C.2       1 <0>         0.7308
     20 O2          4.0105    8.0314    1.4379 O.2       1 <0>        -0.5634
     21 N2          4.8391    6.0690    0.8828 N.am      1 <0>        -0.7265
     22 C15         7.4960    7.3391   -0.9631 C.3       1 <0>         0.4151
     23 F1          8.2753    6.6401   -1.8911 F         1 <0>        -0.1626
     24 F2          7.9124    8.6739   -0.9158 F         1 <0>        -0.1686
     25 F3          7.6446    6.7592    0.3014 F         1 <0>        -0.1659
     26 O3          5.8710    7.8732   -2.6725 O.3       1 <0>        -0.5087
     27 C16         4.1532    5.7429   -1.9470 C.2       1 <0>         0.4210
     28 O4          3.4167    6.6996   -1.8330 O.2       1 <0>        -0.4114
     29 C17         3.6653    4.5116   -2.5851 C.ar      1 <0>        -0.1689
     30 C18         4.5109    3.4039   -2.7131 C.ar      1 <0>        -0.0465
     31 C19         4.0475    2.2532   -3.3119 C.ar      1 <0>        -0.1583
     32 C20         2.7460    2.1911   -3.7880 C.ar      1 <0>         0.1386
     33 C21         1.9027    3.2855   -3.6642 C.ar      1 <0>        -0.1636
     34 C22         2.3516    4.4401   -3.0618 C.ar      1 <0>        -0.0251
     35 F4          2.2979    1.0599   -4.3751 F         1 <0>        -0.1302
     36 H3         -0.9599    1.9048    0.0260 H         1 <0>         0.1389
     37 H4          1.1502    3.1682    0.0078 H         1 <0>         0.1331
     38 H5          3.3379   -0.5205   -0.0330 H         1 <0>         0.1398
     39 H6         -0.9271   -0.5545    0.0083 H         1 <0>         0.1386
     40 H7          5.1512    0.5710   -0.0544 H         1 <0>         0.1574
     41 H8          6.8900    2.6311   -0.0579 H         1 <0>         0.1617
     42 H9          5.0514    8.9517   -0.5319 H         1 <0>         0.4272
     43 H10         4.4236    5.6659    1.6611 H         1 <0>         0.4280
     44 H11         6.1421    8.8005   -2.7129 H         1 <0>         0.4023
     45 H12         5.5245    3.4512   -2.3435 H         1 <0>         0.1391
     46 H13         4.6990    1.3976   -3.4114 H         1 <0>         0.1429
     47 H14         0.8905    3.2307   -4.0369 H         1 <0>         0.1430
     48 H15         1.6927    5.2900   -2.9621 H         1 <0>         0.1431
@<TRIPOS>BOND
     1    1    6 ar
     2    1    2 ar
     3    1   36 1
     4    2    3 ar
     5    2   37 1
     6    3    4 ar
     7    3    8 1
     8    4    5 ar
     9    4   38 1
    10    5    6 ar
    11    5    7 1
    12    6   39 1
    13    8   12 1
    14    8    9 2
    15    9   10 1
    16    9   40 1
    17   10   11 2
    18   10   41 1
    19   11   12 1
    20   11   13 1
    21   13   14 1
    22   13   21 1
    23   13   15 1
    24   15   16 1
    25   15   17 1
    26   15   27 1
    27   17   18 1
    28   17   22 1
    29   17   26 1
    30   18   19 am
    31   18   42 1
    32   19   20 2
    33   19   21 am
    34   21   43 1
    35   22   23 1
    36   22   24 1
    37   22   25 1
    38   26   44 1
    39   27   28 2
    40   27   29 1
    41   29   34 ar
    42   29   30 ar
    43   30   31 ar
    44   30   45 1
    45   31   32 ar
    46   31   46 1
    47   32   33 ar
    48   32   35 1
    49   33   34 ar
    50   33   47 1
    51   34   48 1
