@<TRIPOS>MOLECULE
ZINC67374907
   42    44     0     0     0
SMALL
USER_CHARGES

@<TRIPOS>ATOM
      1 C1         -0.0178    1.4648    0.0101 C.3       1 <0>        -0.0587
      2 N1          0.0021   -0.0041    0.0020 N.4       1 <0>        -0.3872
      3 C2          0.7126   -0.4907    1.1921 C.3       1 <0>         0.0479
      4 C3         -0.0593   -0.1093    2.4290 C.ar      1 <0>        -0.1804
      5 C4          0.1887    1.0994    3.0525 C.ar      1 <0>        -0.0621
      6 C5         -0.5188    1.4505    4.1866 C.ar      1 <0>        -0.1520
      7 C6         -1.4764    0.5911    4.6981 C.ar      1 <0>         0.1441
      8 C7         -1.7240   -0.6191    4.0727 C.ar      1 <0>        -0.1513
      9 C8         -1.0189   -0.9657    2.9358 C.ar      1 <0>        -0.0590
     10 F1         -2.1684    0.9331    5.8069 F         1 <0>        -0.1208
     11 C9          0.6897   -0.4778   -1.2066 C.3       1 <0>         0.0952
     12 C10        -0.1056   -0.0832   -2.4243 C.2       1 <0>         0.2176
     13 N2          0.0281    1.0252   -3.0983 N.2       1 <0>        -0.4866
     14 C11        -0.8363    1.0493   -4.1189 C.2       1 <0>         0.2631
     15 N3         -1.5343   -0.0498   -4.1064 N.2       1 <0>        -0.2857
     16 O1         -1.0672   -0.8128   -3.0038 O.3       1 <0>        -0.0836
     17 C12        -0.9793    2.1667   -5.1199 C.3       1 <0>         0.0010
     18 C13        -0.0599    1.9160   -6.2874 C.ar      1 <0>        -0.1005
     19 C14         1.2334    2.4043   -6.2658 C.ar      1 <0>        -0.0854
     20 C15         2.0772    2.1747   -7.3363 C.ar      1 <0>        -0.1114
     21 C16         1.6282    1.4567   -8.4290 C.ar      1 <0>        -0.0779
     22 C17         0.3346    0.9678   -8.4508 C.ar      1 <0>        -0.0907
     23 C18        -0.5079    1.1933   -7.3768 C.ar      1 <0>        -0.0761
     24 Br1        -0.2804   -0.0138   -9.9455 Br        1 <0>        -0.0344
     25 H1          1.0047    1.8421    0.0024 H         1 <0>         0.1342
     26 H2         -0.5450    1.8259   -0.8730 H         1 <0>         0.1220
     27 H3         -0.5280    1.8163    0.9069 H         1 <0>         0.1307
     28 H4          0.8051   -1.5756    1.1418 H         1 <0>         0.1461
     29 H5          1.7055   -0.0428    1.2310 H         1 <0>         0.1464
     30 H6          0.9359    1.7693    2.6535 H         1 <0>         0.1443
     31 H7         -0.3247    2.3946    4.6738 H         1 <0>         0.1509
     32 H8         -2.4705   -1.2903    4.4711 H         1 <0>         0.1508
     33 H9         -1.2149   -1.9077    2.4452 H         1 <0>         0.1442
     34 H10         1.6817   -0.0294   -1.2596 H         1 <0>         0.1776
     35 H11         0.7830   -1.5632   -1.1697 H         1 <0>         0.1711
     36 H12        -2.0101    2.2095   -5.4719 H         1 <0>         0.1164
     37 H13        -0.7171    3.1134   -4.6476 H         1 <0>         0.1223
     38 H14         1.5845    2.9655   -5.4125 H         1 <0>         0.1342
     39 H15         3.0873    2.5565   -7.3192 H         1 <0>         0.1389
     40 H16         2.2873    1.2780   -9.2657 H         1 <0>         0.1392
     41 H17        -1.5169    0.8085   -7.3918 H         1 <0>         0.1356
     42 H18        -0.9445   -0.3533    0.0092 H         1 <0>         0.4301
@<TRIPOS>BOND
     1    1    2 1
     2    1   25 1
     3    1   26 1
     4    1   27 1
     5    2    3 1
     6    2   11 1
     7    2   42 1
     8    3    4 1
     9    3   28 1
    10    3   29 1
    11    4    9 ar
    12    4    5 ar
    13    5    6 ar
    14    5   30 1
    15    6    7 ar
    16    6   31 1
    17    7    8 ar
    18    7   10 1
    19    8    9 ar
    20    8   32 1
    21    9   33 1
    22   11   12 1
    23   11   34 1
    24   11   35 1
    25   12   16 1
    26   12   13 2
    27   13   14 1
    28   14   15 2
    29   14   17 1
    30   15   16 1
    31   17   18 1
    32   17   36 1
    33   17   37 1
    34   18   23 ar
    35   18   19 ar
    36   19   20 ar
    37   19   38 1
    38   20   21 ar
    39   20   39 1
    40   21   22 ar
    41   21   40 1
    42   22   23 ar
    43   22   24 1
    44   23   41 1
