@<TRIPOS>MOLECULE
ZINC63374722
   67    72     0     0     0
SMALL
USER_CHARGES

@<TRIPOS>ATOM
      1 C1          0.3631    1.5671   -1.1593 C.3       1 <0>        -0.1529
      2 C2          0.3387    0.0398   -1.0706 C.3       1 <0>         0.0584
      3 O1          1.1794   -0.5099   -2.0869 O.3       1 <0>        -0.3231
      4 C3          1.2701   -1.8655   -2.1468 C.ar      1 <0>         0.0876
      5 C4          2.2441   -2.5291   -1.4181 C.ar      1 <0>        -0.0800
      6 C5          2.3346   -3.9072   -1.4797 C.ar      1 <0>        -0.1847
      7 C6          1.4551   -4.6262   -2.2677 C.ar      1 <0>        -0.0705
      8 C7          0.4814   -3.9703   -2.9976 C.ar      1 <0>        -0.1846
      9 C8          0.3813   -2.5897   -2.9355 C.ar      1 <0>         0.1280
     10 O2         -0.5799   -1.9433   -3.6481 O.3       1 <0>        -0.2999
     11 C9         -1.4571   -2.7511   -4.4356 C.3       1 <0>         0.0207
     12 C10         3.2050   -1.7485   -0.5588 C.3       1 <0>        -0.0040
     13 H1          3.0632   -0.6791   -0.7148 H         1 <0>         0.1458
     14 C11         2.9956   -2.0981    0.9168 C.3       1 <0>         0.1237
     15 N1          3.6206   -3.3485    1.3107 N.am      1 <0>        -0.6108
     16 C12         3.2304   -3.8893    2.5131 C.2       1 <0>         0.5144
     17 O3          2.3078   -3.4250    3.1489 O.2       1 <0>        -0.4679
     18 C13         4.0067   -5.0921    3.0053 C.3       1 <0>         0.0715
     19 N2          5.4447   -4.8416    2.7929 N.am      1 <0>        -0.5970
     20 C14         5.8037   -4.3504    1.5684 C.2       1 <0>         0.5288
     21 O4          6.9597   -4.1416    1.2666 O.2       1 <0>        -0.5111
     22 C15         4.6627   -4.0871    0.6200 C.3       1 <0>         0.1586
     23 C16         5.0901   -3.5778   -0.7209 C.3       1 <0>         0.0998
     24 H2          4.6354   -4.1904   -1.4993 H         1 <0>         0.1910
     25 C17         4.6255   -2.1367   -0.8846 C.2       1 <0>         0.0442
     26 C18         5.6741   -1.4450   -1.3034 C.ar      1 <0>        -0.1355
     27 C19         5.8238   -0.0433   -1.7270 C.ar      1 <0>        -0.0047
     28 C20         7.0770    0.3462   -2.0809 C.ar      1 <0>        -0.1531
     29 C21         8.1840   -0.5077   -2.0566 C.ar      1 <0>         0.0535
     30 C22         8.1371   -1.8132   -1.6896 C.ar      1 <0>        -0.2020
     31 C23         6.8712   -2.3419   -1.3046 C.ar      1 <0>         0.3431
     32 N3          6.5371   -3.5350   -0.9258 N.pl3     1 <0>        -0.5389
     33 C24         4.0579   -5.4635    0.3361 C.3       1 <0>        -0.2218
     34 C25         6.4360   -5.1049    3.8389 C.3       1 <0>         0.2050
     35 C26         6.9352   -6.5212    3.7129 C.2       1 <0>        -0.0611
     36 C27         7.9931   -6.9205    2.9842 C.2       1 <0>        -0.1717
     37 C28         8.1006   -8.3203    3.1513 C.2       1 <0>        -0.2202
     38 C29         7.1020   -8.6927    3.9720 C.2       1 <0>        -0.0175
     39 O5          6.4029   -7.5980    4.3136 O.3       1 <0>        -0.1715
     40 H3          1.3837    1.9229   -1.0184 H         1 <0>         0.0637
     41 H4          0.0012    1.8799   -2.1388 H         1 <0>         0.0699
     42 H5         -0.2782    1.9864   -0.3841 H         1 <0>         0.0806
     43 H6          0.7005   -0.2730   -0.0912 H         1 <0>         0.0521
     44 H7         -0.6819   -0.3160   -1.2115 H         1 <0>         0.0603
     45 H8          3.0942   -4.4232   -0.9113 H         1 <0>         0.1387
     46 H9          1.5293   -5.7027   -2.3135 H         1 <0>         0.1365
     47 H10        -0.2041   -4.5343   -3.6127 H         1 <0>         0.1422
     48 H11        -1.9907   -3.4462   -3.7875 H         1 <0>         0.0607
     49 H12        -2.1738   -2.1123   -4.9517 H         1 <0>         0.1095
     50 H13        -0.8758   -3.3108   -5.1683 H         1 <0>         0.0609
     51 H14         3.4072   -1.2946    1.5276 H         1 <0>         0.0874
     52 H15         1.9252   -2.1667    1.1107 H         1 <0>         0.1143
     53 H16         3.8144   -5.2422    4.0677 H         1 <0>         0.1394
     54 H17         3.7029   -5.9774    2.4469 H         1 <0>         0.1252
     55 H18         4.9854    0.6369   -1.7553 H         1 <0>         0.1716
     56 H19         7.2253    1.3680   -2.3977 H         1 <0>         0.1569
     57 H20         9.1406   -0.1008   -2.3492 H         1 <0>         0.1595
     58 H21         9.0250   -2.4281   -1.6901 H         1 <0>         0.1706
     59 H22         2.9706   -5.3873    0.3248 H         1 <0>         0.1128
     60 H23         4.4071   -5.8210   -0.6326 H         1 <0>         0.0921
     61 H24         4.3651   -6.1628    1.1137 H         1 <0>         0.1010
     62 H25         7.2719   -4.4140    3.7295 H         1 <0>         0.1223
     63 H26         5.9766   -4.9674    4.8178 H         1 <0>         0.1114
     64 H27         8.6364   -6.2924    2.3859 H         1 <0>         0.1488
     65 H28         8.8420   -8.9667    2.7052 H         1 <0>         0.1527
     66 H29         6.8993   -9.7005    4.3033 H         1 <0>         0.2087
     67 H30         7.1507   -4.2767   -0.8056 H         1 <0>         0.4605
@<TRIPOS>BOND
     1    1    2 1
     2    1   40 1
     3    1   41 1
     4    1   42 1
     5    2    3 1
     6    2   43 1
     7    2   44 1
     8    3    4 1
     9    4    9 ar
    10    4    5 ar
    11    5    6 ar
    12    5   12 1
    13    6    7 ar
    14    6   45 1
    15    7    8 ar
    16    7   46 1
    17    8    9 ar
    18    8   47 1
    19    9   10 1
    20   10   11 1
    21   11   48 1
    22   11   49 1
    23   11   50 1
    24   12   13 1
    25   12   25 1
    26   12   14 1
    27   14   15 1
    28   14   51 1
    29   14   52 1
    30   15   22 1
    31   15   16 am
    32   16   17 2
    33   16   18 1
    34   18   19 1
    35   18   53 1
    36   18   54 1
    37   19   20 am
    38   19   34 1
    39   20   21 2
    40   20   22 1
    41   22   23 1
    42   22   33 1
    43   23   24 1
    44   23   32 1
    45   23   25 1
    46   25   26 2
    47   26   31 ar
    48   26   27 ar
    49   27   28 ar
    50   27   55 1
    51   28   29 ar
    52   28   56 1
    53   29   30 ar
    54   29   57 1
    55   30   31 ar
    56   30   58 1
    57   31   32 2
    58   32   67 1
    59   33   59 1
    60   33   60 1
    61   33   61 1
    62   34   35 1
    63   34   62 1
    64   34   63 1
    65   35   39 1
    66   35   36 2
    67   36   37 1
    68   36   64 1
    69   37   38 2
    70   37   65 1
    71   38   39 1
    72   38   66 1
