@<TRIPOS>MOLECULE
ZINC20121374
   67    71     0     0     0
SMALL
USER_CHARGES

@<TRIPOS>ATOM
      1 C1         -1.0190   -2.6365   -0.6874 C.3       1 <0>        -0.1710
      2 C2         -1.4994   -1.8095    0.5069 C.3       1 <0>        -0.1160
      3 C3         -0.3329   -1.5786    1.4696 C.3       1 <0>        -0.1632
      4 C4         -2.0284   -0.4612    0.0139 C.3       1 <0>         0.1200
      5 H1         -1.2421    0.0599   -0.5323 H         1 <0>         0.1576
      6 C5         -2.4572    0.3721    1.1940 C.2       1 <0>         0.1320
      7 N1         -3.6592    0.4337    1.7131 N.2       1 <0>        -0.2856
      8 N2         -3.6223    1.2539    2.7061 N.2       1 <0>        -0.0463
      9 N3         -2.4279    1.7171    2.8338 N.2       1 <0>        -0.0488
     10 N4         -1.6789    1.1932    1.9233 N.pl3     1 <0>        -0.2695
     11 C6         -0.2506    1.4470    1.7191 C.3       1 <0>         0.1393
     12 C7         -0.0666    2.8027    1.0873 C.ar      1 <0>        -0.1431
     13 C8          0.1088    2.9101   -0.2797 C.ar      1 <0>        -0.1004
     14 C9          0.2776    4.1537   -0.8593 C.ar      1 <0>        -0.1090
     15 C10         0.2705    5.2899   -0.0720 C.ar      1 <0>        -0.0936
     16 C11         0.0942    5.1826    1.2949 C.ar      1 <0>        -0.1139
     17 C12        -0.0789    3.9394    1.8739 C.ar      1 <0>        -0.0823
     18 N5         -3.1780   -0.6811   -0.8738 N.4       1 <0>        -0.3684
     19 C13        -3.7083    0.6147   -1.3185 C.3       1 <0>        -0.0132
     20 C14        -2.6589    1.3293   -2.1723 C.3       1 <0>        -0.1533
     21 C15        -3.2253    2.6616   -2.6673 C.3       1 <0>         0.0857
     22 O1         -2.2062    3.3841   -3.3611 O.3       1 <0>        -0.5671
     23 C16        -4.2234   -1.4151   -0.1484 C.3       1 <0>         0.0303
     24 C17        -5.3400   -1.7677   -1.0971 C.2       1 <0>        -0.2686
     25 C18        -5.3597   -2.9861   -1.6952 C.2       1 <0>         0.0653
     26 C19        -6.4564   -3.2980   -2.6107 C.ar      1 <0>        -0.1484
     27 C20        -6.5271   -4.5387   -3.2568 C.ar      1 <0>        -0.0325
     28 C21        -7.5716   -4.8034   -4.1145 C.ar      1 <0>         0.0130
     29 C22        -8.5610   -3.8381   -4.3409 C.ar      1 <0>         0.1246
     30 C23        -8.4992   -2.6107   -3.7069 C.ar      1 <0>        -0.1595
     31 C24        -7.4518   -2.3281   -2.8393 C.ar      1 <0>         0.2199
     32 N6         -7.3734   -1.1080   -2.1987 N.am      1 <0>        -0.6161
     33 C25        -6.3631   -0.8332   -1.3554 C.2       1 <0>         0.5422
     34 O2         -6.3283    0.2536   -0.8041 O.2       1 <0>        -0.5221
     35 O3         -9.4695   -4.3486   -5.2216 O.3       1 <0>        -0.2936
     36 C26        -8.8146   -5.4675   -5.8469 C.3       1 <0>         0.2102
     37 O4         -7.8690   -5.9113   -4.8562 O.3       1 <0>        -0.2973
     38 H2         -0.5535   -3.5548   -0.3297 H         1 <0>         0.0968
     39 H3         -1.8689   -2.8838   -1.3235 H         1 <0>         0.0595
     40 H4         -0.2924   -2.0599   -1.2598 H         1 <0>         0.0782
     41 H5         -2.2959   -2.3455    1.0231 H         1 <0>         0.1106
     42 H6          0.4635   -1.0426    0.9534 H         1 <0>         0.0746
     43 H7         -0.6752   -0.9895    2.3204 H         1 <0>         0.0611
     44 H8          0.0439   -2.5392    1.8209 H         1 <0>         0.0947
     45 H9          0.2640    1.4210    2.6797 H         1 <0>         0.1334
     46 H10         0.1645    0.6814    1.0638 H         1 <0>         0.1245
     47 H11         0.1144    2.0224   -0.8948 H         1 <0>         0.1171
     48 H12         0.4154    4.2375   -1.9272 H         1 <0>         0.1333
     49 H13         0.4031    6.2614   -0.5248 H         1 <0>         0.1314
     50 H14         0.0890    6.0703    1.9100 H         1 <0>         0.1330
     51 H15        -0.2204    3.8558    2.9414 H         1 <0>         0.1316
     52 H16        -4.6100    0.4547   -1.9096 H         1 <0>         0.1428
     53 H17        -3.9476    1.2270   -0.4491 H         1 <0>         0.1375
     54 H18        -1.7672    1.5137   -1.5731 H         1 <0>         0.0857
     55 H19        -2.3994    0.7048   -3.0271 H         1 <0>         0.0955
     56 H20        -4.0605    2.4731   -3.3419 H         1 <0>         0.0577
     57 H21        -3.5711    3.2481   -1.8161 H         1 <0>         0.0537
     58 H22        -2.4722    4.2717   -3.6375 H         1 <0>         0.3945
     59 H23        -3.8015   -2.3282    0.2715 H         1 <0>         0.1416
     60 H24        -4.6134   -0.7917    0.6561 H         1 <0>         0.1855
     61 H25        -4.5819   -3.7093   -1.4994 H         1 <0>         0.1595
     62 H26        -5.7654   -5.2845   -3.0835 H         1 <0>         0.1568
     63 H27        -9.2659   -1.8715   -3.8861 H         1 <0>         0.1561
     64 H28        -9.5334   -6.2559   -6.0699 H         1 <0>         0.1455
     65 H29        -8.2987   -5.1511   -6.7535 H         1 <0>         0.0983
     66 H30        -8.0592   -0.4404   -2.3566 H         1 <0>         0.4275
     67 H31        -2.8853   -1.2181   -1.6764 H         1 <0>         0.4245
@<TRIPOS>BOND
     1    1    2 1
     2    1   38 1
     3    1   39 1
     4    1   40 1
     5    2    3 1
     6    2    4 1
     7    2   41 1
     8    3   42 1
     9    3   43 1
    10    3   44 1
    11    4    5 1
    12    4    6 1
    13    4   18 1
    14    6   10 1
    15    6    7 2
    16    7    8 1
    17    8    9 2
    18    9   10 1
    19   10   11 1
    20   11   12 1
    21   11   45 1
    22   11   46 1
    23   12   17 ar
    24   12   13 ar
    25   13   14 ar
    26   13   47 1
    27   14   15 ar
    28   14   48 1
    29   15   16 ar
    30   15   49 1
    31   16   17 ar
    32   16   50 1
    33   17   51 1
    34   18   19 1
    35   18   23 1
    36   18   67 1
    37   19   20 1
    38   19   52 1
    39   19   53 1
    40   20   21 1
    41   20   54 1
    42   20   55 1
    43   21   22 1
    44   21   56 1
    45   21   57 1
    46   22   58 1
    47   23   24 1
    48   23   59 1
    49   23   60 1
    50   24   33 1
    51   24   25 2
    52   25   26 1
    53   25   61 1
    54   26   31 ar
    55   26   27 ar
    56   27   28 ar
    57   27   62 1
    58   28   37 1
    59   28   29 ar
    60   29   30 ar
    61   29   35 1
    62   30   31 ar
    63   30   63 1
    64   31   32 1
    65   32   33 am
    66   32   66 1
    67   33   34 2
    68   35   36 1
    69   36   37 1
    70   36   64 1
    71   36   65 1
