@<TRIPOS>MOLECULE
ZINC39355415
   67    71     0     0     0
SMALL
USER_CHARGES

@<TRIPOS>ATOM
      1 C1         -0.0173    1.4248    0.0099 C.3       1 <0>         0.0321
      2 O1          0.0021   -0.0041    0.0020 O.3       1 <0>        -0.3332
      3 C2          0.6181   -0.6108    1.0287 C.2       1 <0>         0.4638
      4 O2          1.1242    0.0494    1.9050 O.2       1 <0>        -0.4899
      5 C3          0.6786   -2.1154    1.0883 C.3       1 <0>        -0.0952
      6 H1         -0.3328   -2.5210    1.1130 H         1 <0>         0.1402
      7 C4          1.4341   -2.5479    2.3425 C.3       1 <0>         0.1677
      8 H2          1.3927   -3.6355    2.4021 H         1 <0>         0.0888
      9 C5          0.7628   -1.9858    3.5766 C.3       1 <0>        -0.1504
     10 C6          0.9622   -2.9456    4.7652 C.3       1 <0>         0.1062
     11 N1          2.2856   -2.8922    5.2524 N.am      1 <0>        -0.5966
     12 C7          3.4469   -3.2280    4.4070 C.3       1 <0>         0.0851
     13 C8          3.7047   -2.0800    3.4592 C.3       1 <0>         0.0894
     14 N2          2.8485   -2.1498    2.2661 N.am      1 <0>        -0.5944
     15 C9          3.4369   -1.8597    1.0939 C.2       1 <0>         0.5176
     16 O3          4.6132   -1.5654    1.1165 O.2       1 <0>        -0.5423
     17 C10         2.7542   -1.8710   -0.2373 C.3       1 <0>        -0.1624
     18 C11         1.4167   -2.6495   -0.1452 C.3       1 <0>         0.1013
     19 H3          1.6007   -3.7179   -0.0317 H         1 <0>         0.0931
     20 O4          0.6343   -2.4138   -1.3174 O.3       1 <0>        -0.3574
     21 C12         0.8270   -3.3831   -2.3496 C.3       1 <0>         0.0634
     22 C13        -0.0554   -3.0329   -3.5494 C.3       1 <0>        -0.0321
     23 C14         0.1479   -4.0551   -4.6379 C.2       1 <0>        -0.1448
     24 C15        -0.5193   -5.2148   -4.8552 C.2       1 <0>        -0.1529
     25 C16        -0.1574   -6.0051   -5.9300 C.2       1 <0>        -0.1584
     26 C17         0.8539   -5.5969   -6.7349 C.2       1 <0>        -0.1705
     27 S1          1.3248   -4.0490   -5.9803 S.3       1 <0>         0.0367
     28 C18         2.4952   -2.5219    6.5312 C.2       1 <0>         0.5564
     29 O5          1.5544   -2.2413    7.2433 O.2       1 <0>        -0.5025
     30 C19         3.8987   -2.4567    7.0764 C.3       1 <0>        -0.0584
     31 H4          4.5789   -2.0306    6.3389 H         1 <0>         0.1677
     32 C20         4.3676   -3.8216    7.5107 C.2       1 <0>        -0.1272
     33 C21         4.5973   -3.7051    8.8227 C.2       1 <0>        -0.0229
     34 C22         5.0886   -4.8524    9.6776 C.3       1 <0>        -0.0501
     35 C23         4.8474   -6.1625    8.9200 C.3       1 <0>        -0.1226
     36 C24         5.4124   -6.0498    7.5010 C.3       1 <0>        -0.1209
     37 C25         4.5540   -5.0657    6.6934 C.3       1 <0>        -0.0646
     38 N3          4.3270   -2.4450    9.2294 N.2       1 <0>        -0.1522
     39 N4          3.9370   -1.6832    8.3326 N.2       1 <0>        -0.1244
     40 H5          1.0053    1.8021    0.0021 H         1 <0>         0.0591
     41 H6         -0.5445    1.7859   -0.8732 H         1 <0>         0.1041
     42 H7         -0.5275    1.7763    0.9067 H         1 <0>         0.0605
     43 H8          1.1998   -1.0165    3.8167 H         1 <0>         0.1013
     44 H9         -0.3032   -1.8634    3.3849 H         1 <0>         0.0915
     45 H10         0.2760   -2.6694    5.5658 H         1 <0>         0.1053
     46 H11         0.7416   -3.9632    4.4429 H         1 <0>         0.0707
     47 H12         4.3231   -3.3867    5.0357 H         1 <0>         0.1046
     48 H13         3.2347   -4.1323    3.8367 H         1 <0>         0.0944
     49 H14         3.5018   -1.1410    3.9741 H         1 <0>         0.0744
     50 H15         4.7511   -2.0983    3.1544 H         1 <0>         0.1131
     51 H16         2.5596   -0.8458   -0.5523 H         1 <0>         0.1096
     52 H17         3.3992   -2.3557   -0.9702 H         1 <0>         0.1125
     53 H18         1.8731   -3.3844   -2.6560 H         1 <0>         0.0563
     54 H19         0.5568   -4.3706   -1.9757 H         1 <0>         0.0587
     55 H20        -1.1015   -3.0316   -3.2429 H         1 <0>         0.0975
     56 H21         0.2149   -2.0453   -3.9233 H         1 <0>         0.0902
     57 H22        -1.3214   -5.5171   -4.1982 H         1 <0>         0.1339
     58 H23        -0.6726   -6.9340   -6.1253 H         1 <0>         0.1346
     59 H24         1.2654   -6.0807   -7.6084 H         1 <0>         0.1861
     60 H25         6.1543   -4.7333    9.8729 H         1 <0>         0.0897
     61 H26         4.5405   -4.8680   10.6197 H         1 <0>         0.0902
     62 H27         5.3422   -6.9806    9.4434 H         1 <0>         0.0801
     63 H28         3.7767   -6.3603    8.8693 H         1 <0>         0.0678
     64 H29         6.4391   -5.6865    7.5456 H         1 <0>         0.0722
     65 H30         5.3920   -7.0287    7.0221 H         1 <0>         0.0788
     66 H31         3.5836   -5.5135    6.4795 H         1 <0>         0.0906
     67 H32         5.0593   -4.8193    5.7595 H         1 <0>         0.0893
@<TRIPOS>BOND
     1    1    2 1
     2    1   40 1
     3    1   41 1
     4    1   42 1
     5    2    3 1
     6    3    4 2
     7    3    5 1
     8    5    6 1
     9    5   18 1
    10    5    7 1
    11    7    8 1
    12    7   14 1
    13    7    9 1
    14    9   10 1
    15    9   43 1
    16    9   44 1
    17   10   11 1
    18   10   45 1
    19   10   46 1
    20   11   12 1
    21   11   28 am
    22   12   13 1
    23   12   47 1
    24   12   48 1
    25   13   14 1
    26   13   49 1
    27   13   50 1
    28   14   15 am
    29   15   16 2
    30   15   17 1
    31   17   18 1
    32   17   51 1
    33   17   52 1
    34   18   19 1
    35   18   20 1
    36   20   21 1
    37   21   22 1
    38   21   53 1
    39   21   54 1
    40   22   23 1
    41   22   55 1
    42   22   56 1
    43   23   27 1
    44   23   24 2
    45   24   25 1
    46   24   57 1
    47   25   26 2
    48   25   58 1
    49   26   27 1
    50   26   59 1
    51   28   29 2
    52   28   30 1
    53   30   31 1
    54   30   39 1
    55   30   32 1
    56   32   37 1
    57   32   33 2
    58   33   34 1
    59   33   38 1
    60   34   35 1
    61   34   60 1
    62   34   61 1
    63   35   36 1
    64   35   62 1
    65   35   63 1
    66   36   37 1
    67   36   64 1
    68   36   65 1
    69   37   66 1
    70   37   67 1
    71   38   39 2
