@<TRIPOS>MOLECULE
ZINC20990383
   59    62     0     0     0
SMALL
USER_CHARGES
N-[4-[(3-ethyl-7,7-dimethyl-5-oxo-8,9-dihydro-6H-carbazol-2-yl)sulfonylamino]phenyl]acetamide
@<TRIPOS>ATOM
      1 C1          4.8453    5.3359   -1.3317 C.3       1 <0>        -0.1611
      2 C2          4.3897    4.8243    0.0364 C.3       1 <0>        -0.1037
      3 C3          3.2885    3.8120   -0.1470 C.ar      1 <0>         0.0025
      4 C4          1.9749    4.2260   -0.1796 C.ar      1 <0>        -0.0921
      5 C5          0.9575    3.2906   -0.3487 C.ar      1 <0>         0.0077
      6 C6          1.2747    1.9264   -0.4855 C.ar      1 <0>         0.0397
      7 C7          2.6066    1.5298   -0.4501 C.ar      1 <0>        -0.0029
      8 C8          3.6020    2.4679   -0.2818 C.ar      1 <0>        -0.6677
      9 S1          5.2872    1.9552   -0.2381 S.o2      1 <0>         2.6959
     10 O1          5.2834    0.5381   -0.3434 O.2       1 <0>        -0.9512
     11 O2          5.9881    2.7853   -1.1540 O.2       1 <0>        -0.9407
     12 N1          5.8698    2.3162    1.2694 N.pl3     1 <0>        -1.0697
     13 C9          5.3739    1.6428    2.3907 C.ar      1 <0>         0.1493
     14 C10         4.0044    1.4761    2.5514 C.ar      1 <0>        -0.1449
     15 C11         3.5155    0.8056    3.6548 C.ar      1 <0>        -0.1164
     16 C12         4.3921    0.3092    4.6103 C.ar      1 <0>         0.1390
     17 C13         5.7609    0.4811    4.4530 C.ar      1 <0>        -0.0994
     18 C14         6.2506    1.1458    3.3464 C.ar      1 <0>        -0.1083
     19 N2          3.8952   -0.3660    5.7335 N.am      1 <0>        -0.6888
     20 C15         4.5305   -0.2624    6.9177 C.2       1 <0>         0.5113
     21 O3          5.4755    0.4888    7.0352 O.2       1 <0>        -0.5284
     22 C16         4.0667   -1.0800    8.0956 C.3       1 <0>        -0.1762
     23 N3          0.0896    1.2293   -0.6372 N.pl3     1 <0>        -0.5660
     24 H1          0.1063    0.1363   -0.7603 H         1 <0>         0.4525
     25 C17        -0.9573    2.0638   -0.6065 C.2       1 <0>         0.1989
     26 C18        -0.5031    3.3624   -0.4301 C.2       1 <0>        -0.2943
     27 C19        -1.3760    4.4748   -0.3598 C.2       1 <0>         0.4271
     28 O4         -0.9514    5.5966   -0.1724 O.2       1 <0>        -0.4714
     29 C20        -2.8578    4.2148   -0.5261 C.3       1 <0>        -0.1588
     30 C21        -3.2119    2.8344    0.0268 C.3       1 <0>        -0.0499
     31 C22        -2.4300    1.7418   -0.7127 C.3       1 <0>        -0.0627
     32 C23        -2.8652    2.7830    1.5161 C.3       1 <0>        -0.1556
     33 C24        -4.7116    2.5889   -0.1511 C.3       1 <0>        -0.1451
     34 H2          5.6491    6.0748   -1.1978 H         1 <0>         0.0633
     35 H3          3.9962    5.8073   -1.8482 H         1 <0>         0.0547
     36 H4          5.2181    4.4934   -1.9326 H         1 <0>         0.0900
     37 H5          5.2388    4.3529    0.5529 H         1 <0>         0.0665
     38 H6          4.0169    5.6668    0.6374 H         1 <0>         0.0881
     39 H7          1.7349    5.2737   -0.0747 H         1 <0>         0.1386
     40 H8          2.8616    0.4855   -0.5549 H         1 <0>         0.1454
     41 H9          6.6468    3.0856    1.3890 H         1 <0>         0.4540
     42 H10         3.3223    1.8667    1.8107 H         1 <0>         0.1354
     43 H11         2.4509    0.6711    3.7769 H         1 <0>         0.1288
     44 H12         6.4426    0.0946    5.1962 H         1 <0>         0.1388
     45 H13         7.3153    1.2789    3.2238 H         1 <0>         0.1342
     46 H14         2.9868   -0.9804    5.6486 H         1 <0>         0.4351
     47 H15         4.7026   -0.8621    8.9663 H         1 <0>         0.0970
     48 H16         4.1362   -2.1498    7.8494 H         1 <0>         0.0930
     49 H17         3.0229   -0.8249    8.3308 H         1 <0>         0.0916
     50 H18        -3.4280    4.9805    0.0203 H         1 <0>         0.0989
     51 H19        -3.1196    4.2550   -1.5937 H         1 <0>         0.1015
     52 H20        -2.7243    1.7167   -1.7723 H         1 <0>         0.1043
     53 H21        -2.6248    0.7608   -0.2547 H         1 <0>         0.0948
     54 H22        -3.1187    1.7908    1.9175 H         1 <0>         0.0608
     55 H23        -3.4386    3.5532    2.0528 H         1 <0>         0.0646
     56 H24        -1.7890    2.9681    1.6486 H         1 <0>         0.0609
     57 H25        -4.9702    1.5961    0.2458 H         1 <0>         0.0629
     58 H26        -4.9662    2.6341   -1.2203 H         1 <0>         0.0622
     59 H27        -5.2765    3.3600    0.3933 H         1 <0>         0.0661
@<TRIPOS>BOND
     1    1    2 1
     2    1   34 1
     3    1   35 1
     4    1   36 1
     5    2    3 1
     6    2   37 1
     7    2   38 1
     8    3    8 ar
     9    3    4 ar
    10    4    5 ar
    11    4   39 1
    12    5   26 1
    13    5    6 ar
    14    6    7 ar
    15    6   23 1
    16    7    8 ar
    17    7   40 1
    18    8    9 1
    19    9   10 2
    20    9   11 2
    21    9   12 1
    22   12   13 1
    23   12   41 1
    24   13   18 ar
    25   13   14 ar
    26   14   15 ar
    27   14   42 1
    28   15   16 ar
    29   15   43 1
    30   16   17 ar
    31   16   19 1
    32   17   18 ar
    33   17   44 1
    34   18   45 1
    35   19   20 am
    36   19   46 1
    37   20   21 2
    38   20   22 1
    39   22   47 1
    40   22   48 1
    41   22   49 1
    42   23   24 1
    43   23   25 1
    44   25   31 1
    45   25   26 2
    46   26   27 1
    47   27   28 2
    48   27   29 1
    49   29   30 1
    50   29   50 1
    51   29   51 1
    52   30   31 1
    53   30   32 1
    54   30   33 1
    55   31   52 1
    56   31   53 1
    57   32   54 1
    58   32   55 1
    59   32   56 1
    60   33   57 1
    61   33   58 1
    62   33   59 1
