@<TRIPOS>MOLECULE
ZINC13568572
   62    65     0     0     0
SMALL
USER_CHARGES
(4S,7R)-4-(4-hydroxy-3,5-dimethoxy-phenyl)-7-(4-isopropoxyphenyl)-1,3,4,6,7,8-hexahydroquinoline-2,5-dione
@<TRIPOS>ATOM
      1 C1          2.5733    0.9397   -0.6753 C.3       1 <0>        -0.1505
      2 C2          1.8621    0.0928   -1.7325 C.3       1 <0>         0.0766
      3 C3          1.5000    0.9718   -2.9313 C.3       1 <0>        -0.1816
      4 O1          0.6709   -0.4649   -1.1737 O.3       1 <0>        -0.3102
      5 C4          0.2023   -1.6094   -1.7370 C.ar      1 <0>         0.1367
      6 C5         -0.8790   -2.2698   -1.1720 C.ar      1 <0>        -0.1504
      7 C6         -1.3568   -3.4302   -1.7496 C.ar      1 <0>        -0.0724
      8 C7         -0.7517   -3.9392   -2.8839 C.ar      1 <0>        -0.1240
      9 C8          0.3297   -3.2860   -3.4456 C.ar      1 <0>        -0.0678
     10 C9          0.8080   -2.1224   -2.8748 C.ar      1 <0>        -0.2082
     11 C10        -1.2714   -5.2083   -3.5086 C.3       1 <0>        -0.0312
     12 H1         -0.6748   -5.4548   -4.3869 H         1 <0>         0.0919
     13 C11        -2.7337   -5.0181   -3.9178 C.3       1 <0>        -0.0940
     14 C12        -3.2700   -6.3055   -4.4929 C.2       1 <0>         0.2215
     15 C13        -2.7998   -7.5001   -4.0766 C.2       1 <0>        -0.2681
     16 C14        -3.3600   -8.7752   -4.6616 C.3       1 <0>         0.0072
     17 H2         -3.2310   -9.5896   -3.9488 H         1 <0>         0.1150
     18 C15        -4.8488   -8.5871   -4.9576 C.3       1 <0>        -0.1358
     19 C16        -5.0432   -7.2942   -5.7072 C.2       1 <0>         0.5251
     20 O2         -5.9173   -7.2047   -6.5426 O.2       1 <0>        -0.5013
     21 N1         -4.2490   -6.2401   -5.4516 N.am      1 <0>        -0.6623
     22 C17        -2.6312   -9.1047   -5.9389 C.ar      1 <0>        -0.0068
     23 C18        -2.6588   -8.2158   -6.9972 C.ar      1 <0>        -0.2373
     24 C19        -1.9848   -8.5127   -8.1721 C.ar      1 <0>         0.1452
     25 C20        -1.2901   -9.7107   -8.2888 C.ar      1 <0>         0.0386
     26 C21        -1.2696  -10.6043   -7.2245 C.ar      1 <0>         0.1458
     27 C22        -1.9418  -10.2975   -6.0511 C.ar      1 <0>        -0.2147
     28 O3         -0.5916  -11.7781   -7.3339 O.3       1 <0>        -0.3025
     29 C23        -0.6140  -12.6483   -6.2007 C.3       1 <0>         0.0237
     30 O4         -0.6313  -10.0079   -9.4420 O.3       1 <0>        -0.4727
     31 O5         -2.0083   -7.6352   -9.2109 O.3       1 <0>        -0.3007
     32 C24        -2.7420   -6.4239   -9.0204 C.3       1 <0>         0.0252
     33 C25        -1.7927   -7.5902   -3.1013 C.2       1 <0>         0.4069
     34 O6         -1.4028   -8.6838   -2.7435 O.2       1 <0>        -0.4619
     35 C26        -1.1889   -6.3528   -2.4931 C.3       1 <0>        -0.1506
     36 H3          1.9135    1.7440   -0.3500 H         1 <0>         0.0680
     37 H4          2.8313    0.3135    0.1787 H         1 <0>         0.0657
     38 H5          3.4819    1.3651   -1.1016 H         1 <0>         0.0784
     39 H6          2.5219   -0.7115   -2.0579 H         1 <0>         0.0742
     40 H7          0.8402    1.7761   -2.6059 H         1 <0>         0.0685
     41 H8          2.4085    1.3972   -3.3575 H         1 <0>         0.0735
     42 H9          0.9933    0.3684   -3.6844 H         1 <0>         0.0626
     43 H10        -1.3494   -1.8749   -0.2837 H         1 <0>         0.1318
     44 H11        -2.2010   -3.9426   -1.3123 H         1 <0>         0.1295
     45 H12         0.8011   -3.6859   -4.3312 H         1 <0>         0.1259
     46 H13         1.6530   -1.6128   -3.3138 H         1 <0>         0.1309
     47 H14        -3.3222   -4.7412   -3.0431 H         1 <0>         0.1079
     48 H15        -2.8015   -4.2277   -4.6653 H         1 <0>         0.0958
     49 H16        -5.2074   -9.4180   -5.5652 H         1 <0>         0.1170
     50 H17        -5.4051   -8.5525   -4.0209 H         1 <0>         0.1151
     51 H18        -4.3707   -5.4189   -5.9533 H         1 <0>         0.4140
     52 H19        -3.2022   -7.2868   -6.9071 H         1 <0>         0.1336
     53 H20        -1.9264  -10.9913   -5.2236 H         1 <0>         0.1389
     54 H21        -1.6440  -12.9249   -5.9753 H         1 <0>         0.0580
     55 H22        -0.0365  -13.5462   -6.4205 H         1 <0>         0.1038
     56 H23        -0.1787  -12.1376   -5.3417 H         1 <0>         0.0600
     57 H24        -1.1678  -10.4850  -10.0897 H         1 <0>         0.3823
     58 H25        -3.7857   -6.6601   -8.8130 H         1 <0>         0.0565
     59 H26        -2.3204   -5.8720   -8.1803 H         1 <0>         0.0526
     60 H27        -2.6796   -5.8156   -9.9227 H         1 <0>         0.1052
     61 H28        -0.2315   -6.5233   -2.2601 H         1 <0>         0.0910
     62 H29        -1.7390   -6.0814   -1.5920 H         1 <0>         0.1048
@<TRIPOS>BOND
     1    1    2 1
     2    1   36 1
     3    1   37 1
     4    1   38 1
     5    2    3 1
     6    2    4 1
     7    2   39 1
     8    3   40 1
     9    3   41 1
    10    3   42 1
    11    4    5 1
    12    5   10 ar
    13    5    6 ar
    14    6    7 ar
    15    6   43 1
    16    7    8 ar
    17    7   44 1
    18    8    9 ar
    19    8   11 1
    20    9   10 ar
    21    9   45 1
    22   10   46 1
    23   11   12 1
    24   11   35 1
    25   11   13 1
    26   13   14 1
    27   13   47 1
    28   13   48 1
    29   14   21 1
    30   14   15 2
    31   15   16 1
    32   15   33 1
    33   16   17 1
    34   16   18 1
    35   16   22 1
    36   18   19 1
    37   18   49 1
    38   18   50 1
    39   19   20 2
    40   19   21 am
    41   21   51 1
    42   22   27 ar
    43   22   23 ar
    44   23   24 ar
    45   23   52 1
    46   24   25 ar
    47   24   31 1
    48   25   26 ar
    49   25   30 1
    50   26   27 ar
    51   26   28 1
    52   27   53 1
    53   28   29 1
    54   29   54 1
    55   29   55 1
    56   29   56 1
    57   30   57 1
    58   31   32 1
    59   32   58 1
    60   32   59 1
    61   32   60 1
    62   33   34 2
    63   33   35 1
    64   35   61 1
    65   35   62 1
