@<TRIPOS>MOLECULE
ZINC59782675
   62    64     0     0     0
SMALL
USER_CHARGES

@<TRIPOS>ATOM
      1 C1         -0.0207    1.3802    0.5051 C.3       1 <0>         0.0225
      2 O1         -0.0044   -0.0378    0.3282 O.3       1 <0>        -0.3166
      3 C2          0.5981   -0.5127   -0.7935 C.ar      1 <0>         0.1643
      4 C3          1.1670    0.3676   -1.7026 C.ar      1 <0>        -0.1905
      5 C4          1.7792   -0.1176   -2.8417 C.ar      1 <0>        -0.0514
      6 C5          1.8252   -1.4797   -3.0766 C.ar      1 <0>        -0.1345
      7 C6          1.2587   -2.3589   -2.1726 C.ar      1 <0>        -0.0970
      8 C7          0.6502   -1.8788   -1.0288 C.ar      1 <0>        -0.1723
      9 C8          0.0384   -2.8381   -0.0406 C.3       1 <0>         0.0811
     10 H1          0.1698   -2.4517    0.9700 H         1 <0>         0.1613
     11 C9         -1.4546   -2.9926   -0.3374 C.3       1 <0>         0.1032
     12 N1         -1.6292   -3.6359   -1.6420 N.am      1 <0>        -0.7505
     13 C10        -2.8647   -3.7879   -2.1585 C.2       1 <0>         0.5201
     14 O2         -3.8321   -3.3921   -1.5432 O.2       1 <0>        -0.5106
     15 C11        -3.0443   -4.4496   -3.5004 C.3       1 <0>        -0.1367
     16 C12        -4.5328   -4.4957   -3.8513 C.3       1 <0>        -0.0590
     17 C13        -4.7124   -5.1575   -5.1932 C.ar      1 <0>        -0.1252
     18 C14        -4.6951   -4.3948   -6.3466 C.ar      1 <0>        -0.0582
     19 C15        -4.8599   -4.9986   -7.5782 C.ar      1 <0>        -0.2005
     20 C16        -5.0424   -6.3714   -7.6577 C.ar      1 <0>         0.1580
     21 C17        -5.0590   -7.1350   -6.4989 C.ar      1 <0>        -0.1262
     22 C18        -4.8884   -6.5265   -5.2694 C.ar      1 <0>        -0.0477
     23 Br1        -5.3082   -9.0067   -6.6022 Br        1 <0>        -0.0301
     24 O3         -5.2052   -6.9675   -8.8683 O.3       1 <0>        -0.3015
     25 C19        -5.1776   -6.1194  -10.0180 C.3       1 <0>         0.0234
     26 N2          0.6982   -4.1456   -0.1546 N.4       1 <0>        -0.3825
     27 C20         0.0335   -5.1065    0.7338 C.3       1 <0>        -0.0159
     28 C21         0.6646   -6.4895    0.5590 C.3       1 <0>        -0.1437
     29 C22         2.1534   -6.4132    0.9095 C.3       1 <0>        -0.1392
     30 C23         2.8217   -5.3546    0.0275 C.3       1 <0>        -0.1443
     31 C24         2.1107   -4.0137    0.2220 C.3       1 <0>        -0.0121
     32 H2          1.0027    1.7535    0.5418 H         1 <0>         0.0646
     33 H3         -0.5471    1.8443   -0.3290 H         1 <0>         0.0649
     34 H4         -0.5301    1.6242    1.4373 H         1 <0>         0.1122
     35 H5          1.1310    1.4314   -1.5199 H         1 <0>         0.1433
     36 H6          2.2219    0.5672   -3.5498 H         1 <0>         0.1401
     37 H7          2.3043   -1.8571   -3.9679 H         1 <0>         0.1388
     38 H8          1.2957   -3.4221   -2.3584 H         1 <0>         0.1177
     39 H9         -1.9170   -3.6068    0.4353 H         1 <0>         0.0976
     40 H10        -1.9260   -2.0099   -0.3509 H         1 <0>         0.1165
     41 H11        -0.8555   -3.9524   -2.1340 H         1 <0>         0.3899
     42 H12        -2.5093   -3.8805   -4.2607 H         1 <0>         0.1002
     43 H13        -2.6487   -5.4645   -3.4609 H         1 <0>         0.0993
     44 H14        -5.0678   -5.0649   -3.0910 H         1 <0>         0.0842
     45 H15        -4.9284   -3.4808   -3.8908 H         1 <0>         0.0844
     46 H16        -4.5530   -3.3260   -6.2845 H         1 <0>         0.1315
     47 H17        -4.8470   -4.4021   -8.4784 H         1 <0>         0.1390
     48 H18        -4.8971   -7.1205   -4.3675 H         1 <0>         0.1379
     49 H19        -5.9769   -5.3820   -9.9449 H         1 <0>         0.0601
     50 H20        -4.2159   -5.6089  -10.0699 H         1 <0>         0.0588
     51 H21        -5.3188   -6.7204  -10.9163 H         1 <0>         0.1077
     52 H22         0.1481   -4.7835    1.7685 H         1 <0>         0.1341
     53 H23        -1.0266   -5.1574    0.4852 H         1 <0>         0.1333
     54 H24         0.1709   -7.2011    1.2208 H         1 <0>         0.1149
     55 H25         0.5503   -6.8137   -0.4754 H         1 <0>         0.0867
     56 H26         2.2673   -6.1387    1.9582 H         1 <0>         0.0835
     57 H27         2.6197   -7.3824    0.7325 H         1 <0>         0.0955
     58 H28         3.8699   -5.2550    0.3094 H         1 <0>         0.1140
     59 H29         2.7522   -5.6552   -1.0179 H         1 <0>         0.0862
     60 H30         2.5842   -3.2577   -0.4044 H         1 <0>         0.1327
     61 H31         2.1810   -3.7139    1.2676 H         1 <0>         0.1321
     62 H32         0.6342   -4.4715   -1.1074 H         1 <0>         0.4105
@<TRIPOS>BOND
     1    1    2 1
     2    1   32 1
     3    1   33 1
     4    1   34 1
     5    2    3 1
     6    3    8 ar
     7    3    4 ar
     8    4    5 ar
     9    4   35 1
    10    5    6 ar
    11    5   36 1
    12    6    7 ar
    13    6   37 1
    14    7    8 ar
    15    7   38 1
    16    8    9 1
    17    9   10 1
    18    9   11 1
    19    9   26 1
    20   11   12 1
    21   11   39 1
    22   11   40 1
    23   12   13 am
    24   12   41 1
    25   13   14 2
    26   13   15 1
    27   15   16 1
    28   15   42 1
    29   15   43 1
    30   16   17 1
    31   16   44 1
    32   16   45 1
    33   17   22 ar
    34   17   18 ar
    35   18   19 ar
    36   18   46 1
    37   19   20 ar
    38   19   47 1
    39   20   21 ar
    40   20   24 1
    41   21   22 ar
    42   21   23 1
    43   22   48 1
    44   24   25 1
    45   25   49 1
    46   25   50 1
    47   25   51 1
    48   26   31 1
    49   26   27 1
    50   26   62 1
    51   27   28 1
    52   27   52 1
    53   27   53 1
    54   28   29 1
    55   28   54 1
    56   28   55 1
    57   29   30 1
    58   29   56 1
    59   29   57 1
    60   30   31 1
    61   30   58 1
    62   30   59 1
    63   31   60 1
    64   31   61 1
