@<TRIPOS>MOLECULE
ZINC35486278
   64    67     0     0     0
SMALL
USER_CHARGES

@<TRIPOS>ATOM
      1 C1          0.7177    1.5911   -2.2395 C.3       1 <0>        -0.1879
      2 C2          0.3696    0.1076   -2.3765 C.3       1 <0>        -0.0182
      3 N1          0.8740   -0.6238   -1.2067 N.4       1 <0>        -0.3821
      4 C3          0.1670   -0.1684   -0.0022 C.3       1 <0>        -0.0153
      5 C4          0.7982   -0.8124    1.2338 C.3       1 <0>        -0.1896
      6 C5          0.6464   -2.0630   -1.3934 C.3       1 <0>        -0.0406
      7 C6          1.4837   -2.5631   -2.5722 C.3       1 <0>         0.1198
      8 N2          1.3516   -4.0180   -2.6827 N.am      1 <0>        -0.5992
      9 C7          2.2056   -5.0168   -2.0193 C.3       1 <0>         0.2356
     10 H1          2.1364   -4.9110   -0.9366 H         1 <0>         0.1234
     11 C8          1.6779   -6.3486   -2.4415 C.2       1 <0>        -0.2451
     12 C9          2.1181   -7.7096   -2.1168 C.2       1 <0>         0.4568
     13 O1          2.9459   -7.9558   -1.2575 O.2       1 <0>        -0.4309
     14 C10         1.4585   -8.7585   -2.9347 C.ar      1 <0>        -0.2135
     15 C11         1.9083  -10.0778   -2.8881 C.ar      1 <0>        -0.0294
     16 C12         1.2936  -11.0311   -3.6512 C.ar      1 <0>        -0.1006
     17 C13         0.2264  -10.6893   -4.4701 C.ar      1 <0>        -0.0142
     18 C14        -0.2315   -9.3922   -4.5275 C.ar      1 <0>        -0.1316
     19 C15         0.3768   -8.4017   -3.7564 C.ar      1 <0>         0.1350
     20 O2         -0.0958   -7.1361   -3.8205 O.3       1 <0>        -0.1785
     21 C16         0.6128   -6.1315   -3.2686 C.2       1 <0>         0.0900
     22 C17         0.4228   -4.6767   -3.4052 C.2       1 <0>         0.5787
     23 O3         -0.4433   -4.1477   -4.0732 O.2       1 <0>        -0.4717
     24 C18        -0.4391  -11.7511   -5.3071 C.3       1 <0>        -0.1299
     25 C19         1.7766  -12.4578   -3.6034 C.3       1 <0>        -0.1224
     26 C20         3.6358   -4.8571   -2.4663 C.ar      1 <0>        -0.0839
     27 C21         3.9171   -4.5712   -3.7894 C.ar      1 <0>        -0.1236
     28 C22         5.2275   -4.4238   -4.2044 C.ar      1 <0>        -0.1041
     29 C23         6.2625   -4.5620   -3.2935 C.ar      1 <0>         0.0941
     30 C24         5.9793   -4.8493   -1.9617 C.ar      1 <0>         0.1105
     31 C25         4.6634   -4.9911   -1.5513 C.ar      1 <0>        -0.1674
     32 O4          6.9917   -4.9860   -1.0639 O.3       1 <0>        -0.3016
     33 C26         6.6264   -5.2809    0.2858 C.3       1 <0>         0.0225
     34 O5          7.5521   -4.4177   -3.7003 O.3       1 <0>        -0.4816
     35 H2          0.2578    1.9902   -1.3354 H         1 <0>         0.0813
     36 H3          1.7998    1.7063   -2.1779 H         1 <0>         0.0813
     37 H4          0.3434    2.1338   -3.1075 H         1 <0>         0.1082
     38 H5         -0.7125   -0.0075   -2.4381 H         1 <0>         0.1331
     39 H6          0.8295   -0.2915   -3.2806 H         1 <0>         0.1316
     40 H7          0.2421    0.9163    0.0749 H         1 <0>         0.1365
     41 H8         -0.8823   -0.4564   -0.0662 H         1 <0>         0.1306
     42 H9          1.8323   -0.4809    1.3282 H         1 <0>         0.0820
     43 H10         0.2397   -0.5178    2.1223 H         1 <0>         0.1080
     44 H11         0.7723   -1.8973    1.1315 H         1 <0>         0.0784
     45 H12         0.9369   -2.5972   -0.4888 H         1 <0>         0.1386
     46 H13        -0.4097   -2.2404   -1.5967 H         1 <0>         0.1388
     47 H14         1.1321   -2.0955   -3.4919 H         1 <0>         0.1155
     48 H15         2.5301   -2.3045   -2.4102 H         1 <0>         0.1134
     49 H16         2.7392  -10.3452   -2.2520 H         1 <0>         0.1468
     50 H17        -1.0626   -9.1415   -5.1700 H         1 <0>         0.1494
     51 H18        -1.2525  -12.2040   -4.7402 H         1 <0>         0.0864
     52 H19        -0.8369  -11.3006   -6.2165 H         1 <0>         0.0772
     53 H20         0.2907  -12.5168   -5.5702 H         1 <0>         0.0836
     54 H21         1.2405  -12.9969   -2.8223 H         1 <0>         0.0797
     55 H22         1.5938  -12.9357   -4.5658 H         1 <0>         0.0788
     56 H23         2.8449  -12.4727   -3.3874 H         1 <0>         0.0734
     57 H24         3.1113   -4.4632   -4.5003 H         1 <0>         0.1231
     58 H25         5.4445   -4.2011   -5.2387 H         1 <0>         0.1425
     59 H26         4.4408   -5.2104   -0.5175 H         1 <0>         0.1392
     60 H27         5.9961   -4.4811    0.6746 H         1 <0>         0.0541
     61 H28         6.0786   -6.2227    0.3164 H         1 <0>         0.0622
     62 H29         7.5259   -5.3637    0.8958 H         1 <0>         0.1072
     63 H30         7.8843   -3.5116   -3.6404 H         1 <0>         0.3923
     64 H31         1.8625   -0.4505   -1.1022 H         1 <0>         0.4231
@<TRIPOS>BOND
     1    1    2 1
     2    1   35 1
     3    1   36 1
     4    1   37 1
     5    2    3 1
     6    2   38 1
     7    2   39 1
     8    3    4 1
     9    3    6 1
    10    3   64 1
    11    4    5 1
    12    4   40 1
    13    4   41 1
    14    5   42 1
    15    5   43 1
    16    5   44 1
    17    6    7 1
    18    6   45 1
    19    6   46 1
    20    7    8 1
    21    7   47 1
    22    7   48 1
    23    8   22 am
    24    8    9 1
    25    9   10 1
    26    9   11 1
    27    9   26 1
    28   11   21 2
    29   11   12 1
    30   12   13 2
    31   12   14 1
    32   14   19 ar
    33   14   15 ar
    34   15   16 ar
    35   15   49 1
    36   16   17 ar
    37   16   25 1
    38   17   18 ar
    39   17   24 1
    40   18   19 ar
    41   18   50 1
    42   19   20 1
    43   20   21 1
    44   21   22 1
    45   22   23 2
    46   24   51 1
    47   24   52 1
    48   24   53 1
    49   25   54 1
    50   25   55 1
    51   25   56 1
    52   26   31 ar
    53   26   27 ar
    54   27   28 ar
    55   27   57 1
    56   28   29 ar
    57   28   58 1
    58   29   30 ar
    59   29   34 1
    60   30   31 ar
    61   30   32 1
    62   31   59 1
    63   32   33 1
    64   33   60 1
    65   33   61 1
    66   33   62 1
    67   34   63 1
