@<TRIPOS>MOLECULE
ZINC64392209
   56    60     0     0     0
SMALL
USER_CHARGES

@<TRIPOS>ATOM
      1 C1         -0.0184    1.5028    0.0103 C.3       1 <0>        -0.1203
      2 C2          0.0021   -0.0041    0.0020 C.ar      1 <0>        -0.0697
      3 C3          0.0057   -0.6887   -1.1989 C.ar      1 <0>        -0.1273
      4 C4          0.0245   -2.0709   -1.2065 C.ar      1 <0>        -0.0895
      5 C5          0.0400   -2.7685   -0.0132 C.ar      1 <0>        -0.1330
      6 C6          0.0373   -2.0839    1.1877 C.ar      1 <0>        -0.0869
      7 C7          0.0229   -0.7016    1.1953 C.ar      1 <0>        -0.1268
      8 C8          0.0595   -4.2753   -0.0215 C.3       1 <0>         0.1518
      9 N1          1.4468   -4.7457   -0.0317 N.am      1 <0>        -0.5482
     10 C9          2.0694   -4.9467   -1.2135 C.2       1 <0>         0.5605
     11 O1          1.4933   -4.7424   -2.2646 O.2       1 <0>        -0.4732
     12 C10         3.4652   -5.4197   -1.1959 C.ar      1 <0>        -0.1647
     13 C11         4.1756   -5.6501   -2.3716 C.ar      1 <0>        -0.0028
     14 C12         5.4801   -6.0921   -2.3015 C.ar      1 <0>        -0.1365
     15 C13         6.0832   -6.3073   -1.0717 C.ar      1 <0>        -0.0923
     16 C14         5.3900   -6.0827    0.1010 C.ar      1 <0>        -0.1225
     17 C15         4.0778   -5.6377    0.0504 C.ar      1 <0>         0.2132
     18 N2          3.3461   -5.3995    1.2048 N.am      1 <0>        -0.6436
     19 H1          3.7559   -5.5452    2.0718 H         1 <0>         0.4396
     20 C16         2.0767   -4.9635    1.1333 C.2       1 <0>         0.7042
     21 O2          1.4714   -4.7623    2.1684 O.2       1 <0>        -0.5184
     22 C17         7.5092   -6.7914   -1.0146 C.3       1 <0>         0.3065
     23 H2          7.6704   -7.3824   -0.1130 H         1 <0>         0.1662
     24 N3          7.8235   -7.5876   -2.2069 N.pl3     1 <0>        -0.6243
     25 C18         8.7898   -7.0074   -2.8518 C.cat     1 <0>         0.5713
     26 N4          9.1953   -5.8581   -2.2188 N.pl3     1 <0>        -0.5106
     27 O3          8.4138   -5.6771   -1.0465 O.3       1 <0>        -0.0959
     28 C19         9.3790   -7.5194   -4.1073 C.ar      1 <0>        -0.1573
     29 C20         8.5944   -8.2527   -5.0000 C.ar      1 <0>        -0.0292
     30 C21         9.1452   -8.7281   -6.1688 C.ar      1 <0>        -0.1020
     31 C22        10.4831   -8.4783   -6.4611 C.ar      1 <0>        -0.0246
     32 C23        11.2674   -7.7479   -5.5725 C.ar      1 <0>        -0.1406
     33 C24        10.7196   -7.2656   -4.4052 C.ar      1 <0>        -0.0241
     34 S1         11.1852   -9.0880   -7.9577 S.3       1 <0>        -0.0422
     35 C25        12.9084   -8.5245   -7.8956 C.3       1 <0>        -0.1628
     36 H3          1.0042    1.8801    0.0026 H         1 <0>         0.0724
     37 H4         -0.5455    1.8639   -0.8728 H         1 <0>         0.0697
     38 H5         -0.5286    1.8543    0.9071 H         1 <0>         0.0700
     39 H6         -0.0064   -0.1436   -2.1312 H         1 <0>         0.1249
     40 H7          0.0266   -2.6057   -2.1448 H         1 <0>         0.1282
     41 H8          0.0491   -2.6289    2.1200 H         1 <0>         0.1301
     42 H9          0.0245   -0.1667    2.1335 H         1 <0>         0.1254
     43 H10        -0.4447   -4.6501    0.8693 H         1 <0>         0.1133
     44 H11        -0.4546   -4.6404   -0.9106 H         1 <0>         0.1119
     45 H12         3.7083   -5.4841   -3.3310 H         1 <0>         0.1581
     46 H13         6.0352   -6.2722   -3.2103 H         1 <0>         0.1309
     47 H14         5.8680   -6.2534    1.0543 H         1 <0>         0.1542
     48 H15         9.9015   -5.2664   -2.5223 H         1 <0>         0.4882
     49 H16         7.5564   -8.4471   -4.7736 H         1 <0>         0.1452
     50 H17         8.5389   -9.2955   -6.8593 H         1 <0>         0.1549
     51 H18        12.3054   -7.5560   -5.8011 H         1 <0>         0.1484
     52 H19        11.3271   -6.6949   -3.7185 H         1 <0>         0.1437
     53 H20        12.9330   -7.4360   -7.8440 H         1 <0>         0.0945
     54 H21        13.3953   -8.9411   -7.0140 H         1 <0>         0.0944
     55 H22        13.4321   -8.8577   -8.7916 H         1 <0>         0.1242
     56 H23         7.3827   -8.4109   -2.4694 H         1 <0>         0.4735
@<TRIPOS>BOND
     1    1    2 1
     2    1   36 1
     3    1   37 1
     4    1   38 1
     5    2    7 ar
     6    2    3 ar
     7    3    4 ar
     8    3   39 1
     9    4    5 ar
    10    4   40 1
    11    5    6 ar
    12    5    8 1
    13    6    7 ar
    14    6   41 1
    15    7   42 1
    16    8    9 1
    17    8   43 1
    18    8   44 1
    19    9   20 am
    20    9   10 am
    21   10   11 2
    22   10   12 1
    23   12   17 ar
    24   12   13 ar
    25   13   14 ar
    26   13   45 1
    27   14   15 ar
    28   14   46 1
    29   15   16 ar
    30   15   22 1
    31   16   17 ar
    32   16   47 1
    33   17   18 1
    34   18   19 1
    35   18   20 am
    36   20   21 2
    37   22   23 1
    38   22   27 1
    39   22   24 1
    40   24   25 2
    41   24   56 1
    42   25   26 1
    43   25   28 1
    44   26   27 1
    45   26   48 1
    46   28   33 ar
    47   28   29 ar
    48   29   30 ar
    49   29   49 1
    50   30   31 ar
    51   30   50 1
    52   31   32 ar
    53   31   34 1
    54   32   33 ar
    55   32   51 1
    56   33   52 1
    57   34   35 1
    58   35   53 1
    59   35   54 1
    60   35   55 1
