@<TRIPOS>MOLECULE
ZINC64137051
   72    77     0     0     0
SMALL
USER_CHARGES

@<TRIPOS>ATOM
      1 C1          0.0391    1.5030    0.0081 C.3       1 <0>        -0.1254
      2 C2          0.0296   -0.0040    0.0010 C.ar      1 <0>        -0.0697
      3 C3         -0.0711   -0.6889   -1.1957 C.ar      1 <0>        -0.1163
      4 C4         -0.0799   -2.0710   -1.2023 C.ar      1 <0>        -0.0931
      5 C5          0.0125   -2.7686   -0.0122 C.ar      1 <0>        -0.1156
      6 C6          0.1141   -2.0838    1.1841 C.ar      1 <0>        -0.0814
      7 C7          0.1272   -0.7013    1.1903 C.ar      1 <0>        -0.1401
      8 C8          0.2433    0.0453    2.4942 C.3       1 <0>         0.2452
      9 H1          0.7286    1.0071    2.3284 H         1 <0>         0.1253
     10 C9         -1.1513    0.2617    3.0976 C.3       1 <0>         0.0850
     11 H2         -1.1235    1.0344    3.8659 H         1 <0>         0.1844
     12 C10        -1.5980   -1.0701    3.6859 C.2       1 <0>         0.0683
     13 C11        -2.7490   -1.3740    3.0949 C.ar      1 <0>        -0.1553
     14 C12        -3.6806   -2.4968    3.2878 C.ar      1 <0>         0.0041
     15 C13        -4.7808   -2.5063    2.4893 C.ar      1 <0>        -0.1593
     16 C14        -5.0438   -1.5228    1.5308 C.ar      1 <0>         0.0581
     17 C15        -4.2451   -0.4526    1.2903 C.ar      1 <0>        -0.2065
     18 C16        -3.0587   -0.3309    2.0708 C.ar      1 <0>         0.3456
     19 N1         -2.1317    0.5954    2.0608 N.pl3     1 <0>        -0.5747
     20 C17        -0.7782   -1.8456    4.6903 C.3       1 <0>        -0.0862
     21 C18         0.5682   -1.1122    4.8154 C.3       1 <0>         0.0874
     22 H3          0.4865   -0.2363    5.4591 H         1 <0>         0.1493
     23 N2          1.0203   -0.7469    3.4557 N.am      1 <0>        -0.6302
     24 C19         2.2313   -1.2933    3.2887 C.2       1 <0>         0.7313
     25 O1          2.9363   -1.0954    2.3187 O.2       1 <0>        -0.5069
     26 N3          2.5762   -2.0832    4.3148 N.am      1 <0>        -0.5241
     27 C20         1.6308   -2.0690    5.3113 C.2       1 <0>         0.5475
     28 O2          1.6327   -2.6834    6.3563 O.2       1 <0>        -0.4312
     29 C21         3.7580   -2.8252    4.3710 C.ar      1 <0>         0.1776
     30 C22         4.9019   -2.2730    4.9298 C.ar      1 <0>        -0.1034
     31 C23         6.0692   -3.0082    4.9850 C.ar      1 <0>        -0.0771
     32 C24         6.1086   -4.2994    4.4846 C.ar      1 <0>        -0.1032
     33 C25         4.9821   -4.8635    3.9257 C.ar      1 <0>        -0.0782
     34 C26         3.7927   -4.1335    3.8684 C.ar      1 <0>        -0.1228
     35 C27         2.5814   -4.7337    3.2769 C.2       1 <0>         0.5707
     36 O3          1.5492   -4.0933    3.2243 O.2       1 <0>        -0.5486
     37 N4          2.6192   -5.9918    2.7949 N.am      1 <0>        -0.7203
     38 C28         1.4165   -6.5876    2.2076 C.3       1 <0>         0.1214
     39 C29         1.7282   -8.0111    1.7413 C.3       1 <0>        -0.1318
     40 C30         0.4723   -8.6334    1.1280 C.3       1 <0>        -0.0907
     41 C31         0.0902   -7.8667   -0.1398 C.3       1 <0>        -0.1518
     42 C32         0.7480  -10.0965    0.7756 C.3       1 <0>        -0.1506
     43 H4          1.0691    1.8598    0.0060 H         1 <0>         0.0894
     44 H5         -0.4757    1.8738   -0.8782 H         1 <0>         0.0817
     45 H6         -0.4691    1.8653    0.9017 H         1 <0>         0.0473
     46 H7         -0.1433   -0.1441   -2.1254 H         1 <0>         0.1307
     47 H8         -0.1593   -2.6061   -2.1371 H         1 <0>         0.1291
     48 H9          0.0050   -3.8485   -0.0172 H         1 <0>         0.1236
     49 H10         0.1860   -2.6287    2.1138 H         1 <0>         0.1354
     50 H11        -3.5005   -3.2689    4.0211 H         1 <0>         0.1699
     51 H12        -5.4878   -3.3151    2.6009 H         1 <0>         0.1554
     52 H13        -5.9435   -1.6220    0.9416 H         1 <0>         0.1579
     53 H14        -4.4985    0.2785    0.5368 H         1 <0>         0.1687
     54 H15        -1.2861   -1.8611    5.6546 H         1 <0>         0.1503
     55 H16        -0.6175   -2.8635    4.3351 H         1 <0>         0.1395
     56 H17         4.8791   -1.2668    5.3217 H         1 <0>         0.1367
     57 H18         6.9570   -2.5740    5.4205 H         1 <0>         0.1437
     58 H19         7.0264   -4.8665    4.5323 H         1 <0>         0.1429
     59 H20         5.0179   -5.8702    3.5363 H         1 <0>         0.1365
     60 H21         3.4426   -6.5027    2.8368 H         1 <0>         0.4031
     61 H22         0.6230   -6.6155    2.9544 H         1 <0>         0.0686
     62 H23         1.0932   -5.9890    1.3560 H         1 <0>         0.0699
     63 H24         2.5217   -7.9833    0.9945 H         1 <0>         0.0723
     64 H25         2.0516   -8.6098    2.5929 H         1 <0>         0.0728
     65 H26        -0.3468   -8.5805    1.8452 H         1 <0>         0.0723
     66 H27         0.9093   -7.9196   -0.8570 H         1 <0>         0.0568
     67 H28        -0.8045   -8.3101   -0.5767 H         1 <0>         0.0580
     68 H29        -0.1062   -6.8244    0.1113 H         1 <0>         0.0523
     69 H30         1.0201  -10.6427    1.6788 H         1 <0>         0.0570
     70 H31        -0.1468  -10.5398    0.3386 H         1 <0>         0.0590
     71 H32         1.5670  -10.1494    0.0583 H         1 <0>         0.0568
     72 H33        -2.0944    1.3655    1.4721 H         1 <0>         0.4555
@<TRIPOS>BOND
     1    1    2 1
     2    1   43 1
     3    1   44 1
     4    1   45 1
     5    2    7 ar
     6    2    3 ar
     7    3    4 ar
     8    3   46 1
     9    4    5 ar
    10    4   47 1
    11    5    6 ar
    12    5   48 1
    13    6    7 ar
    14    6   49 1
    15    7    8 1
    16    8    9 1
    17    8   23 1
    18    8   10 1
    19   10   11 1
    20   10   19 1
    21   10   12 1
    22   12   13 2
    23   12   20 1
    24   13   18 ar
    25   13   14 ar
    26   14   15 ar
    27   14   50 1
    28   15   16 ar
    29   15   51 1
    30   16   17 ar
    31   16   52 1
    32   17   18 ar
    33   17   53 1
    34   18   19 2
    35   19   72 1
    36   20   21 1
    37   20   54 1
    38   20   55 1
    39   21   22 1
    40   21   27 1
    41   21   23 1
    42   23   24 am
    43   24   25 2
    44   24   26 am
    45   26   27 am
    46   26   29 1
    47   27   28 2
    48   29   34 ar
    49   29   30 ar
    50   30   31 ar
    51   30   56 1
    52   31   32 ar
    53   31   57 1
    54   32   33 ar
    55   32   58 1
    56   33   34 ar
    57   33   59 1
    58   34   35 1
    59   35   36 2
    60   35   37 am
    61   37   38 1
    62   37   60 1
    63   38   39 1
    64   38   61 1
    65   38   62 1
    66   39   40 1
    67   39   63 1
    68   39   64 1
    69   40   41 1
    70   40   42 1
    71   40   65 1
    72   41   66 1
    73   41   67 1
    74   41   68 1
    75   42   69 1
    76   42   70 1
    77   42   71 1
