@<TRIPOS>MOLECULE
ZINC22277102
   55    60     0     0     0
SMALL
USER_CHARGES
6-chloro-2-[[5-(1H-indol-3-yl)-4-[[(2S)-tetrahydrofuran-2-yl]methyl]-1,2,4-triazol-3-yl]sulfanylmethyl]-3H-quinazolin-4-one
@<TRIPOS>ATOM
      1 C1         10.5257    7.4989    1.6427 C.ar      1 <0>        -0.1424
      2 C2         11.0060    8.6651    1.0633 C.ar      1 <0>        -0.0961
      3 C3         10.3137    9.2784    0.0423 C.ar      1 <0>        -0.1298
      4 C4          9.1142    8.7325   -0.4050 C.ar      1 <0>         0.0895
      5 C5          8.6318    7.5540    0.1885 C.ar      1 <0>        -0.0697
      6 C6          9.3518    6.9445    1.2145 C.ar      1 <0>        -0.0599
      7 C7          7.3679    7.2405   -0.4995 C.2       1 <0>        -0.1027
      8 C8          7.1742    8.2185   -1.4215 C.2       1 <0>         0.0953
      9 N1          8.2073    9.1091   -1.3719 N.pl3     1 <0>        -0.5952
     10 H1          8.3830   10.0175   -1.9668 H         1 <0>         0.4480
     11 C9          6.4808    6.0902   -0.2341 C.2       1 <0>         0.2878
     12 N2          6.8469    4.8357   -0.1021 N.2       1 <0>        -0.2742
     13 N3          5.8180    4.0991    0.1215 N.2       1 <0>        -0.2929
     14 C10         4.7318    4.8356    0.1463 C.2       1 <0>         0.1263
     15 N4          5.1137    6.1288   -0.0846 N.pl3     1 <0>        -0.4520
     16 C11         4.2480    7.3086   -0.1553 C.3       1 <0>         0.0908
     17 C12         4.0053    7.8484    1.2556 C.3       1 <0>         0.0610
     18 H2          3.6715    7.0335    1.9148 H         1 <0>         0.0929
     19 C13         3.0025    9.0211    1.2023 C.3       1 <0>        -0.1485
     20 C14         3.5912   10.0059    2.2490 C.3       1 <0>        -0.1543
     21 C15         5.1096    9.7580    2.0648 C.3       1 <0>         0.0541
     22 O1          5.2306    8.3512    1.8010 O.3       1 <0>        -0.3607
     23 S1          3.0875    4.2641    0.4186 S.3       1 <0>         0.0989
     24 C16         3.4008    2.4939    0.6291 C.3       1 <0>        -0.0882
     25 C17         2.0980    1.7796    0.8813 C.2       1 <0>         0.4249
     26 N5          2.1261    0.4338    1.0659 N.am      1 <0>        -0.6586
     27 H3          3.0836   -0.1064    1.0300 H         1 <0>         0.4537
     28 C18         0.9832   -0.2542    1.2948 C.2       1 <0>         0.5582
     29 O2          0.9936   -1.4600    1.4611 O.2       1 <0>        -0.5003
     30 C19        -0.2715    0.5116    1.3343 C.ar      1 <0>        -0.1895
     31 C20        -1.5017   -0.1012    1.5634 C.ar      1 <0>        -0.0295
     32 C21        -2.6475    0.6652    1.5906 C.ar      1 <0>        -0.0559
     33 C22        -2.5829    2.0393    1.3917 C.ar      1 <0>        -0.0624
     34 C23        -1.3765    2.6635    1.1692 C.ar      1 <0>        -0.0945
     35 C24        -0.2028    1.9077    1.1319 C.ar      1 <0>         0.1644
     36 N6          1.0065    2.4818    0.9111 N.2       1 <0>        -0.5161
     37 Cl1        -4.1834   -0.0923    1.8750 Cl        1 <0>        -0.0541
     38 H4         11.0833    7.0263    2.4378 H         1 <0>         0.1233
     39 H5         11.9345    9.0924    1.4120 H         1 <0>         0.1259
     40 H6         10.6947   10.1862   -0.4017 H         1 <0>         0.1213
     41 H7          8.9832    6.0373    1.6701 H         1 <0>         0.1218
     42 H8          6.3305    8.2819   -2.0927 H         1 <0>         0.1680
     43 H9          4.7339    8.0838   -0.7659 H         1 <0>         0.1030
     44 H10         3.2866    7.0311   -0.6121 H         1 <0>         0.1096
     45 H11         2.9807    9.4389    0.1850 H         1 <0>         0.0804
     46 H12         1.9995    8.6584    1.4713 H         1 <0>         0.0905
     47 H13         3.2803   11.0319    2.0026 H         1 <0>         0.0864
     48 H14         3.2210    9.7411    3.2504 H         1 <0>         0.0819
     49 H15         5.4801   10.3611    1.2228 H         1 <0>         0.0589
     50 H16         5.6421   10.0449    2.9836 H         1 <0>         0.0880
     51 H17         3.8681    2.0933   -0.2826 H         1 <0>         0.1367
     52 H18         4.0749    2.3400    1.4846 H         1 <0>         0.1369
     53 H19        -1.5573   -1.1685    1.7188 H         1 <0>         0.1499
     54 H20        -3.4900    2.6250    1.4162 H         1 <0>         0.1473
     55 H21        -1.3386    3.7320    1.0165 H         1 <0>         0.1520
@<TRIPOS>BOND
     1    1    6 ar
     2    1    2 ar
     3    1   38 1
     4    2    3 ar
     5    2   39 1
     6    3    4 ar
     7    3   40 1
     8    4    9 1
     9    4    5 ar
    10    5    6 ar
    11    5    7 1
    12    6   41 1
    13    7    8 2
    14    7   11 1
    15    8    9 1
    16    8   42 1
    17    9   10 1
    18   11   15 1
    19   11   12 2
    20   12   13 1
    21   13   14 2
    22   14   15 1
    23   14   23 1
    24   15   16 1
    25   16   17 1
    26   16   43 1
    27   16   44 1
    28   17   18 1
    29   17   22 1
    30   17   19 1
    31   19   20 1
    32   19   45 1
    33   19   46 1
    34   20   21 1
    35   20   47 1
    36   20   48 1
    37   21   22 1
    38   21   49 1
    39   21   50 1
    40   23   24 1
    41   24   25 1
    42   24   51 1
    43   24   52 1
    44   25   36 2
    45   25   26 1
    46   26   27 1
    47   26   28 am
    48   28   29 2
    49   28   30 1
    50   30   35 ar
    51   30   31 ar
    52   31   32 ar
    53   31   53 1
    54   32   33 ar
    55   32   37 1
    56   33   34 ar
    57   33   54 1
    58   34   35 ar
    59   34   55 1
    60   35   36 1
