@<TRIPOS>MOLECULE
ZINC39623764
   69    73     0     0     0
SMALL
USER_CHARGES

@<TRIPOS>ATOM
      1 C1          1.5884   -7.0769   -2.0123 C.ar      1 <0>        -0.1201
      2 C2          1.1254   -5.9214   -1.4112 C.ar      1 <0>        -0.1156
      3 C3          2.0166   -4.9362   -1.0293 C.ar      1 <0>        -0.1166
      4 C4          3.3708   -5.1066   -1.2481 C.ar      1 <0>        -0.0890
      5 C5          3.8339   -6.2625   -1.8484 C.ar      1 <0>        -0.1189
      6 C6          2.9426   -7.2471   -2.2316 C.ar      1 <0>        -0.1178
      7 C7          4.3423   -4.0320   -0.8327 C.3       1 <0>        -0.0773
      8 C8          4.8025   -4.2882    0.6038 C.3       1 <0>        -0.1241
      9 C9          5.7889   -3.1972    1.0256 C.3       1 <0>         0.1145
     10 N1          6.2295   -3.4425    2.4010 N.am      1 <0>        -0.7278
     11 C10         7.1061   -2.6035    2.9876 C.2       1 <0>         0.5193
     12 O1          7.5302   -1.6454    2.3767 O.2       1 <0>        -0.5188
     13 C11         7.5594   -2.8558    4.4025 C.3       1 <0>        -0.1141
     14 H1          6.7795   -3.3701    4.9640 H         1 <0>         0.1120
     15 C12         7.9313   -1.5249    5.0937 C.3       1 <0>         0.1082
     16 N2          9.1057   -1.8553    5.9349 N.am      1 <0>        -0.6185
     17 C13         9.9046   -2.7870    5.1032 C.3       1 <0>         0.1107
     18 C14         8.8572   -3.6809    4.4099 C.3       1 <0>        -0.0726
     19 C15         9.2933   -3.9930    2.9816 C.3       1 <0>        -0.1469
     20 C16        10.5528   -4.8632    3.0157 C.3       1 <0>        -0.0076
     21 N3         10.2719   -6.1055    3.7454 N.4       1 <0>        -0.5044
     22 C17         9.9438   -5.8017    5.1436 C.3       1 <0>        -0.0111
     23 C18         8.6585   -4.9712    5.1994 C.3       1 <0>        -0.1345
     24 C19         9.3844   -1.4099    7.1760 C.2       1 <0>         0.6351
     25 O2         10.3986   -1.7761    7.7407 O.2       1 <0>        -0.5115
     26 C20         8.4664   -0.4847    7.8457 C.2       1 <0>        -0.0979
     27 C21         8.6320    0.0494    9.1047 C.2       1 <0>        -0.0931
     28 C22         7.5273    0.8738    9.3418 C.2       1 <0>        -0.2042
     29 C23         6.7359    0.8138    8.2309 C.2       1 <0>         0.0792
     30 O3          7.3141   -0.0026    7.3342 O.3       1 <0>        -0.1576
     31 C24         5.4589    1.5319    8.0436 C.ar      1 <0>        -0.0380
     32 C25         4.9677    2.3640    9.0518 C.ar      1 <0>        -0.0873
     33 C26         3.7747    3.0320    8.8700 C.ar      1 <0>        -0.1142
     34 C27         3.0649    2.8792    7.6921 C.ar      1 <0>        -0.1005
     35 C28         3.5455    2.0559    6.6892 C.ar      1 <0>        -0.1179
     36 C29         4.7401    1.3864    6.8553 C.ar      1 <0>        -0.0964
     37 H2          0.8925   -7.8487   -2.3066 H         1 <0>         0.1237
     38 H3          0.0674   -5.7883   -1.2402 H         1 <0>         0.1241
     39 H4          1.6548   -4.0331   -0.5603 H         1 <0>         0.1216
     40 H5          4.8919   -6.3955   -2.0197 H         1 <0>         0.1188
     41 H6          3.3043   -8.1500   -2.7009 H         1 <0>         0.1227
     42 H7          5.2053   -4.0453   -1.4985 H         1 <0>         0.0762
     43 H8          3.8542   -3.0591   -0.8898 H         1 <0>         0.0783
     44 H9          3.9396   -4.2750    1.2696 H         1 <0>         0.0735
     45 H10         5.2906   -5.2611    0.6609 H         1 <0>         0.0690
     46 H11         6.6518   -3.2105    0.3598 H         1 <0>         0.0724
     47 H12         5.3008   -2.2243    0.9685 H         1 <0>         0.0751
     48 H13         5.8903   -4.2088    2.8896 H         1 <0>         0.4007
     49 H14         8.1956   -0.7719    4.3511 H         1 <0>         0.1021
     50 H15         7.1060   -1.1751    5.7138 H         1 <0>         0.1026
     51 H16        10.4843   -2.2349    4.3634 H         1 <0>         0.0885
     52 H17        10.5617   -3.3891    5.7307 H         1 <0>         0.0922
     53 H18         8.4954   -4.5277    2.4662 H         1 <0>         0.0975
     54 H19         9.5078   -3.0629    2.4552 H         1 <0>         0.1266
     55 H20        10.8571   -5.1016    1.9966 H         1 <0>         0.1397
     56 H21        11.3550   -4.3214    3.5166 H         1 <0>         0.1339
     57 H22         9.4924   -6.5788    3.3136 H         1 <0>         0.4275
     58 H23         9.7992   -6.7319    5.6930 H         1 <0>         0.1404
     59 H24        10.7605   -5.2374    5.5938 H         1 <0>         0.1347
     60 H25         8.4254   -4.7308    6.2367 H         1 <0>         0.1184
     61 H26         7.8377   -5.5413    4.7642 H         1 <0>         0.0970
     62 H27         9.4557   -0.1336    9.7788 H         1 <0>         0.1667
     63 H28         7.3361    1.4492   10.2355 H         1 <0>         0.1640
     64 H29         5.5205    2.4839    9.9718 H         1 <0>         0.1323
     65 H30         3.3935    3.6756    9.6491 H         1 <0>         0.1345
     66 H31         2.1313    3.4046    7.5550 H         1 <0>         0.1307
     67 H32         2.9863    1.9408    5.7724 H         1 <0>         0.1301
     68 H33         5.1163    0.7476    6.0699 H         1 <0>         0.1249
     69 H34        11.0841   -6.7034    3.7142 H         1 <0>         0.4346
@<TRIPOS>BOND
     1    1    6 ar
     2    1    2 ar
     3    1   37 1
     4    2    3 ar
     5    2   38 1
     6    3    4 ar
     7    3   39 1
     8    4    5 ar
     9    4    7 1
    10    5    6 ar
    11    5   40 1
    12    6   41 1
    13    7    8 1
    14    7   42 1
    15    7   43 1
    16    8    9 1
    17    8   44 1
    18    8   45 1
    19    9   10 1
    20    9   46 1
    21    9   47 1
    22   10   11 am
    23   10   48 1
    24   11   12 2
    25   11   13 1
    26   13   14 1
    27   13   18 1
    28   13   15 1
    29   15   16 1
    30   15   49 1
    31   15   50 1
    32   16   17 1
    33   16   24 am
    34   17   18 1
    35   17   51 1
    36   17   52 1
    37   18   23 1
    38   18   19 1
    39   19   20 1
    40   19   53 1
    41   19   54 1
    42   20   21 1
    43   20   55 1
    44   20   56 1
    45   21   22 1
    46   21   57 1
    47   21   69 1
    48   22   23 1
    49   22   58 1
    50   22   59 1
    51   23   60 1
    52   23   61 1
    53   24   25 2
    54   24   26 1
    55   26   30 1
    56   26   27 2
    57   27   28 1
    58   27   62 1
    59   28   29 2
    60   28   63 1
    61   29   30 1
    62   29   31 1
    63   31   36 ar
    64   31   32 ar
    65   32   33 ar
    66   32   64 1
    67   33   34 ar
    68   33   65 1
    69   34   35 ar
    70   34   66 1
    71   35   36 ar
    72   35   67 1
    73   36   68 1
