@<TRIPOS>MOLECULE
ZINC16683014
   73    78     0     0     0
SMALL
USER_CHARGES
ethyl amino-hydroxy-tetramethyl-BLAHcarboxylate
@<TRIPOS>ATOM
      1 C1         -7.4407    5.7727    0.4052 C.3       1 <0>        -0.1531
      2 C2         -6.8577    4.3948    0.0851 C.3       1 <0>         0.0639
      3 O1         -5.4321    4.4504    0.1657 O.3       1 <0>        -0.3469
      4 C3         -4.7588    3.3089   -0.0906 C.2       1 <0>         0.5692
      5 O2         -5.3676    2.2940   -0.3747 O.2       1 <0>        -0.5322
      6 C4         -3.3465    3.2921   -0.0289 C.2       1 <0>        -0.3495
      7 C5         -2.4888    2.2262   -0.2575 C.2       1 <0>         0.3273
      8 C6         -1.0831    2.4226   -0.0249 C.ar      1 <0>        -0.1821
      9 C7         -0.0184    1.5026    0.0103 C.ar      1 <0>         0.0345
     10 C8          1.2971    2.0077    0.0005 C.ar      1 <0>        -0.1487
     11 C9          1.5553    3.3660    0.1006 C.ar      1 <0>         0.1920
     12 N1          0.5393    4.2251    0.2020 N.ar      1 <0>        -0.4466
     13 C10        -0.6979    3.7905    0.1560 C.ar      1 <0>         0.1279
     14 S1         -2.2365    4.6430    0.3226 S.3       1 <0>         0.1434
     15 C11         2.9594    3.9132    0.0903 C.3       1 <0>        -0.1152
     16 C12         2.2121    0.8351   -0.1209 C.3       1 <0>        -0.0089
     17 C13         3.5933    0.8960    0.4591 C.3       1 <0>        -0.1023
     18 C14         4.2816   -0.4644    0.4993 C.3       1 <0>        -0.1047
     19 C15         3.4247   -1.6542    0.9017 C.3       1 <0>        -0.0628
     20 H1          3.9438   -2.5594    0.4977 H         1 <0>         0.0642
     21 C16         2.0574   -1.6194    0.2029 C.3       1 <0>        -0.0617
     22 H2          2.2223   -1.7197   -0.8816 H         1 <0>         0.0786
     23 C17         1.4082   -0.3095    0.5406 C.3       1 <0>        -0.0642
     24 H3          1.3819   -0.1704    1.6343 H         1 <0>         0.0915
     25 C18         0.0021   -0.0041    0.0020 C.3       1 <0>        -0.0572
     26 H4         -0.1540   -0.4095   -0.9871 H         1 <0>         0.1023
     27 C19        -1.0408   -0.5453    0.9931 C.3       1 <0>        -0.1618
     28 C20         1.2346   -2.8356    0.6135 C.3       1 <0>        -0.0839
     29 C21         1.1422   -2.9233    2.1063 C.2       1 <0>        -0.1556
     30 C22         2.1117   -2.5400    2.8802 C.2       1 <0>        -0.0917
     31 C23         3.3580   -1.8545    2.3977 C.3       1 <0>        -0.0050
     32 C24         4.5578   -2.7083    2.8470 C.3       1 <0>        -0.1013
     33 C25         4.5120   -2.9623    4.3487 C.3       1 <0>        -0.1125
     34 C26         3.2272   -3.6794    4.7576 C.3       1 <0>         0.1111
     35 H5          3.2255   -3.8289    5.8396 H         1 <0>         0.0525
     36 C27         2.0074   -2.8399    4.3664 C.3       1 <0>        -0.1207
     37 O3          3.1580   -4.9507    4.1079 O.3       1 <0>        -0.5607
     38 C28         3.4643   -0.5200    3.1326 C.3       1 <0>        -0.1496
     39 C29         2.3428    0.5789   -1.6266 C.3       1 <0>        -0.1479
     40 N2         -3.0047    1.0263   -0.7227 N.pl3     1 <0>        -0.8181
     41 H6         -7.0645    6.5019   -0.3123 H         1 <0>         0.0674
     42 H7         -8.5282    5.7303    0.3437 H         1 <0>         0.0800
     43 H8         -7.1449    6.0675    1.4120 H         1 <0>         0.0673
     44 H9         -7.1535    4.1000   -0.9217 H         1 <0>         0.0676
     45 H10        -7.2340    3.6655    0.8026 H         1 <0>         0.0675
     46 H11         3.2580    4.1282   -0.9358 H         1 <0>         0.0863
     47 H12         2.9965    4.8297    0.6791 H         1 <0>         0.0850
     48 H13         3.6393    3.1775    0.5199 H         1 <0>         0.0880
     49 H14         3.5707    1.3688    1.4410 H         1 <0>         0.0696
     50 H15         4.2051    1.5580   -0.1882 H         1 <0>         0.0644
     51 H16         5.1641   -0.4084    1.1515 H         1 <0>         0.0679
     52 H17         4.6943   -0.6716   -0.5069 H         1 <0>         0.0570
     53 H18        -2.0352   -0.2184    0.6888 H         1 <0>         0.0619
     54 H19        -1.0032   -1.6346    1.0014 H         1 <0>         0.0745
     55 H20        -0.8237   -0.1666    1.9919 H         1 <0>         0.0619
     56 H21         0.2421   -2.7845    0.1742 H         1 <0>         0.0707
     57 H22         1.7312   -3.7381    0.2371 H         1 <0>         0.0721
     58 H23         0.2597   -3.3600    2.5487 H         1 <0>         0.1012
     59 H24         4.5361   -3.6574    2.3099 H         1 <0>         0.0685
     60 H25         5.4779   -2.1778    2.5935 H         1 <0>         0.0618
     61 H26         4.6114   -2.0331    4.9061 H         1 <0>         0.0776
     62 H27         5.3651   -3.6007    4.6212 H         1 <0>         0.0652
     63 H28         1.9830   -1.9200    4.9435 H         1 <0>         0.0798
     64 H29         1.0970   -3.4119    4.5586 H         1 <0>         0.0682
     65 H30         2.3719   -5.4661    4.3349 H         1 <0>         0.3750
     66 H31         2.6422    0.1282    2.8294 H         1 <0>         0.0579
     67 H32         3.4137   -0.6922    4.2077 H         1 <0>         0.0554
     68 H33         4.4129   -0.0435    2.8852 H         1 <0>         0.0612
     69 H34         1.3502    0.5313   -2.0746 H         1 <0>         0.0527
     70 H35         2.9099    1.3890   -2.0851 H         1 <0>         0.0593
     71 H36         2.8611   -0.3658   -1.7908 H         1 <0>         0.0684
     72 H37        -2.4111    0.2808   -0.9035 H         1 <0>         0.4018
     73 H38        -3.9592    0.9324   -0.8673 H         1 <0>         0.4235
@<TRIPOS>BOND
     1    1    2 1
     2    1   41 1
     3    1   42 1
     4    1   43 1
     5    2    3 1
     6    2   44 1
     7    2   45 1
     8    3    4 1
     9    4    5 2
    10    4    6 1
    11    6   14 1
    12    6    7 2
    13    7    8 1
    14    7   40 1
    15    8   13 ar
    16    8    9 ar
    17    9   25 1
    18    9   10 ar
    19   10   11 ar
    20   10   16 1
    21   11   12 ar
    22   11   15 1
    23   12   13 ar
    24   13   14 1
    25   15   46 1
    26   15   47 1
    27   15   48 1
    28   16   23 1
    29   16   17 1
    30   16   39 1
    31   17   18 1
    32   17   49 1
    33   17   50 1
    34   18   19 1
    35   18   51 1
    36   18   52 1
    37   19   20 1
    38   19   31 1
    39   19   21 1
    40   21   22 1
    41   21   23 1
    42   21   28 1
    43   23   24 1
    44   23   25 1
    45   25   26 1
    46   25   27 1
    47   27   53 1
    48   27   54 1
    49   27   55 1
    50   28   29 1
    51   28   56 1
    52   28   57 1
    53   29   30 2
    54   29   58 1
    55   30   36 1
    56   30   31 1
    57   31   32 1
    58   31   38 1
    59   32   33 1
    60   32   59 1
    61   32   60 1
    62   33   34 1
    63   33   61 1
    64   33   62 1
    65   34   35 1
    66   34   36 1
    67   34   37 1
    68   36   63 1
    69   36   64 1
    70   37   65 1
    71   38   66 1
    72   38   67 1
    73   38   68 1
    74   39   69 1
    75   39   70 1
    76   39   71 1
    77   40   72 1
    78   40   73 1
