@<TRIPOS>MOLECULE
ZINC19819610
   43    46     0     0     0
SMALL
USER_CHARGES

@<TRIPOS>ATOM
      1 C1         -0.0167    1.3791    0.0096 C.ar      1 <0>        -0.1140
      2 C2          1.1686    2.0923    0.0021 C.ar      1 <0>        -0.1236
      3 C3          2.3774    1.4266   -0.0135 C.ar      1 <0>        -0.0878
      4 C4          2.4024    0.0329   -0.0212 C.ar      1 <0>        -0.0266
      5 C5          1.2049   -0.6804   -0.0131 C.ar      1 <0>        -0.1038
      6 C6          0.0021   -0.0041    0.0020 C.ar      1 <0>        -0.1202
      7 C7          3.6983   -0.6882   -0.0385 C.2       1 <0>         0.1164
      8 C8          3.7272   -2.0547   -0.0513 C.2       1 <0>        -0.2456
      9 S1          5.4908   -2.3488   -0.0691 S.3       1 <0>         0.1776
     10 C9          6.0028   -0.6363   -0.0577 C.2       1 <0>         0.3109
     11 N1          4.8387   -0.0138   -0.0471 N.2       1 <0>        -0.5287
     12 N2          7.2845   -0.1025   -0.0638 N.pl3     1 <0>        -0.5754
     13 C10         8.3742   -0.9353   -0.0813 C.2       1 <0>         0.6375
     14 N3          9.6251   -0.3997   -0.0814 N.am      1 <0>        -0.6389
     15 H1          9.7423    0.5632   -0.0692 H         1 <0>         0.4199
     16 C11        10.7027   -1.2131   -0.0982 C.2       1 <0>         0.5474
     17 O1         11.8314   -0.7499   -0.0982 O.2       1 <0>        -0.5191
     18 C12        10.4989   -2.6045   -0.1152 C.2       1 <0>        -0.2929
     19 C13         9.2211   -3.0838   -0.1142 C.2       1 <0>         0.2332
     20 N4          8.1916   -2.2404   -0.0923 N.2       1 <0>        -0.5680
     21 C14         8.9754   -4.5706   -0.1322 C.3       1 <0>        -0.0722
     22 S2          8.4495   -5.1165    1.5158 S.3       1 <0>        -0.0630
     23 C15         8.2055   -6.8519    1.3322 C.ar      1 <0>        -0.0851
     24 C16         8.4324   -7.4607    0.1039 C.ar      1 <0>        -0.1226
     25 C17         8.2402   -8.8209   -0.0369 C.ar      1 <0>        -0.0880
     26 C18         7.8221   -9.5776    1.0438 C.ar      1 <0>        -0.0407
     27 C19         7.5954   -8.9741    2.2685 C.ar      1 <0>        -0.0887
     28 C20         7.7913   -7.6153    2.4169 C.ar      1 <0>        -0.0863
     29 Cl1         7.5811  -11.2872    0.8628 Cl        1 <0>        -0.0649
     30 H2         -0.9603    1.9042    0.0260 H         1 <0>         0.1232
     31 H3          1.1480    3.1720    0.0081 H         1 <0>         0.1241
     32 H4          3.3022    1.9843   -0.0200 H         1 <0>         0.1303
     33 H5          1.2184   -1.7603   -0.0191 H         1 <0>         0.1253
     34 H6         -0.9264   -0.5557    0.0079 H         1 <0>         0.1262
     35 H7          2.9105   -2.7614   -0.0505 H         1 <0>         0.1984
     36 H8          7.4093    0.8594   -0.0556 H         1 <0>         0.4380
     37 H9         11.3395   -3.2823   -0.1292 H         1 <0>         0.1646
     38 H10         8.1951   -4.8011   -0.8575 H         1 <0>         0.1178
     39 H11         9.8940   -5.0873   -0.4102 H         1 <0>         0.1161
     40 H12         8.7583   -6.8707   -0.7399 H         1 <0>         0.1326
     41 H13         8.4161   -9.2946   -0.9914 H         1 <0>         0.1380
     42 H14         7.2688   -9.5672    3.1099 H         1 <0>         0.1403
     43 H15         7.6188   -7.1456    3.3741 H         1 <0>         0.1386
@<TRIPOS>BOND
     1    1    6 ar
     2    1    2 ar
     3    1   30 1
     4    2    3 ar
     5    2   31 1
     6    3    4 ar
     7    3   32 1
     8    4    5 ar
     9    4    7 1
    10    5    6 ar
    11    5   33 1
    12    6   34 1
    13    7   11 1
    14    7    8 2
    15    8    9 1
    16    8   35 1
    17    9   10 1
    18   10   11 2
    19   10   12 1
    20   12   13 1
    21   12   36 1
    22   13   20 2
    23   13   14 1
    24   14   15 1
    25   14   16 am
    26   16   17 2
    27   16   18 1
    28   18   19 2
    29   18   37 1
    30   19   20 1
    31   19   21 1
    32   21   22 1
    33   21   38 1
    34   21   39 1
    35   22   23 1
    36   23   28 ar
    37   23   24 ar
    38   24   25 ar
    39   24   40 1
    40   25   26 ar
    41   25   41 1
    42   26   27 ar
    43   26   29 1
    44   27   28 ar
    45   27   42 1
    46   28   43 1
