@<TRIPOS>MOLECULE
ZINC39430139
   70    74     0     0     0
SMALL
USER_CHARGES

@<TRIPOS>ATOM
      1 C1          0.1384    1.5775   -0.0266 C.ar      1 <0>        -0.0998
      2 C2          1.3419    2.2608   -0.0462 C.ar      1 <0>        -0.1213
      3 C3          2.5330    1.5662   -0.0587 C.ar      1 <0>        -0.0901
      4 C4          2.5229    0.1679   -0.0511 C.ar      1 <0>        -0.0907
      5 C5          1.3029   -0.5151   -0.0308 C.ar      1 <0>        -0.0981
      6 C6          0.1201    0.1937   -0.0190 C.ar      1 <0>        -0.1226
      7 C7          3.7900   -0.5812   -0.0648 C.2       1 <0>         0.0049
      8 C8          3.7762   -1.9292   -0.0575 C.2       1 <0>        -0.2394
      9 C9          5.0367   -2.6743   -0.0711 C.2       1 <0>         0.5532
     10 O1          6.0967   -2.0767   -0.0891 O.2       1 <0>        -0.5427
     11 N1          5.0229   -4.0220   -0.0638 N.am      1 <0>        -0.6023
     12 C10         3.7469   -4.7414   -0.0421 C.3       1 <0>         0.0981
     13 C11         3.2825   -4.9995   -1.4769 C.3       1 <0>         0.0602
     14 H1          3.2500   -4.0605   -2.0294 H         1 <0>         0.0845
     15 C12         1.8820   -5.6491   -1.4652 C.3       1 <0>        -0.1515
     16 C13         1.9914   -6.6887   -2.6138 C.3       1 <0>        -0.1570
     17 C14         3.4765   -7.1120   -2.4869 C.3       1 <0>         0.0479
     18 O2          4.1794   -5.9117   -2.1212 O.3       1 <0>        -0.3743
     19 C15         6.2840   -4.7675   -0.0774 C.3       1 <0>         0.1228
     20 C16         6.7431   -5.0193    1.3601 C.3       1 <0>        -0.1157
     21 C17         7.0796   -3.6847    2.0315 C.3       1 <0>        -0.1341
     22 C18         7.6133   -3.9492    3.4410 C.3       1 <0>        -0.0100
     23 N2          8.8223   -4.7778    3.3628 N.4       1 <0>        -0.3769
     24 C19         8.4928   -6.0866    2.7856 C.3       1 <0>        -0.0077
     25 C20         7.9930   -5.9043    1.3509 C.3       1 <0>        -0.1388
     26 C21         9.3746   -4.9641    4.7113 C.3       1 <0>         0.0214
     27 C22        10.6993   -5.7543    4.6573 C.3       1 <0>        -0.0930
     28 C23        11.7840   -4.7031    4.5604 C.ar      1 <0>        -0.1209
     29 C24        13.1091   -4.8138    4.1729 C.ar      1 <0>        -0.0950
     30 C25        13.9255   -3.7000    4.1622 C.ar      1 <0>        -0.1045
     31 C26        13.4193   -2.4699    4.5393 C.ar      1 <0>        -0.1040
     32 C27        12.0983   -2.3575    4.9260 C.ar      1 <0>        -0.0948
     33 C28        11.2780   -3.4734    4.9374 C.ar      1 <0>        -0.1198
     34 C29         9.8186   -3.6141    5.3136 C.3       1 <0>        -0.0944
     35 H2         -0.7911    2.1271   -0.0127 H         1 <0>         0.1281
     36 H3          1.3481    3.3408   -0.0520 H         1 <0>         0.1297
     37 H4          3.4713    2.1008   -0.0747 H         1 <0>         0.1289
     38 H5          1.2870   -1.5950   -0.0252 H         1 <0>         0.1244
     39 H6         -0.8229   -0.3324   -0.0034 H         1 <0>         0.1282
     40 H7          4.7307   -0.0508   -0.0808 H         1 <0>         0.1358
     41 H8          2.8356   -2.4595   -0.0415 H         1 <0>         0.1304
     42 H9          3.8747   -5.6923    0.4751 H         1 <0>         0.0857
     43 H10         3.0006   -4.1418    0.4791 H         1 <0>         0.0945
     44 H11         1.6912   -6.1425   -0.5122 H         1 <0>         0.0808
     45 H12         1.1101   -4.9108   -1.6824 H         1 <0>         0.0871
     46 H13         1.3258   -7.5347   -2.4425 H         1 <0>         0.0874
     47 H14         1.7958   -6.2270   -3.5815 H         1 <0>         0.0815
     48 H15         3.5892   -7.8687   -1.7105 H         1 <0>         0.0609
     49 H16         3.8450   -7.4896   -3.4407 H         1 <0>         0.0880
     50 H17         6.1367   -5.7212   -0.5842 H         1 <0>         0.0959
     51 H18         7.0423   -4.1890   -0.6050 H         1 <0>         0.0887
     52 H19         5.9479   -5.5174    1.9148 H         1 <0>         0.0883
     53 H20         7.8381   -3.1642    1.4469 H         1 <0>         0.0949
     54 H21         6.1809   -3.0708    2.0918 H         1 <0>         0.1078
     55 H22         7.8536   -3.0011    3.9219 H         1 <0>         0.1294
     56 H23         6.8539   -4.4695    4.0248 H         1 <0>         0.1271
     57 H24         9.3824   -6.7163    2.7827 H         1 <0>         0.1316
     58 H25         7.7147   -6.5613    3.3834 H         1 <0>         0.1295
     59 H26         7.7471   -6.8769    0.9248 H         1 <0>         0.1146
     60 H27         8.7704   -5.4298    0.7522 H         1 <0>         0.0907
     61 H28         8.6511   -5.4584    5.3596 H         1 <0>         0.1524
     62 H29        10.8247   -6.3447    5.5650 H         1 <0>         0.1224
     63 H30        10.7189   -6.4001    3.7794 H         1 <0>         0.0962
     64 H31        13.5053   -5.7744    3.8785 H         1 <0>         0.1278
     65 H32        14.9584   -3.7898    3.8598 H         1 <0>         0.1342
     66 H33        14.0564   -1.5979    4.5318 H         1 <0>         0.1343
     67 H34        11.7036   -1.3963    5.2205 H         1 <0>         0.1278
     68 H35         9.2369   -2.7986    4.8838 H         1 <0>         0.0963
     69 H36         9.7071   -3.6287    6.3978 H         1 <0>         0.1224
     70 H37         9.5070   -4.3179    2.7817 H         1 <0>         0.4227
@<TRIPOS>BOND
     1    1    6 ar
     2    1    2 ar
     3    1   35 1
     4    2    3 ar
     5    2   36 1
     6    3    4 ar
     7    3   37 1
     8    4    5 ar
     9    4    7 1
    10    5    6 ar
    11    5   38 1
    12    6   39 1
    13    7    8 2
    14    7   40 1
    15    8    9 1
    16    8   41 1
    17    9   10 2
    18    9   11 am
    19   11   12 1
    20   11   19 1
    21   12   13 1
    22   12   42 1
    23   12   43 1
    24   13   14 1
    25   13   18 1
    26   13   15 1
    27   15   16 1
    28   15   44 1
    29   15   45 1
    30   16   17 1
    31   16   46 1
    32   16   47 1
    33   17   18 1
    34   17   48 1
    35   17   49 1
    36   19   20 1
    37   19   50 1
    38   19   51 1
    39   20   25 1
    40   20   21 1
    41   20   52 1
    42   21   22 1
    43   21   53 1
    44   21   54 1
    45   22   23 1
    46   22   55 1
    47   22   56 1
    48   23   24 1
    49   23   26 1
    50   23   70 1
    51   24   25 1
    52   24   57 1
    53   24   58 1
    54   25   59 1
    55   25   60 1
    56   26   34 1
    57   26   27 1
    58   26   61 1
    59   27   28 1
    60   27   62 1
    61   27   63 1
    62   28   33 ar
    63   28   29 ar
    64   29   30 ar
    65   29   64 1
    66   30   31 ar
    67   30   65 1
    68   31   32 ar
    69   31   66 1
    70   32   33 ar
    71   32   67 1
    72   33   34 1
    73   34   68 1
    74   34   69 1
