@<TRIPOS>MOLECULE
ZINC39607228
   74    78     0     0     0
SMALL
USER_CHARGES

@<TRIPOS>ATOM
      1 C1          3.5170   -5.0048    6.0652 C.3       1 <0>        -0.1235
      2 C2          2.7781   -5.1140    4.7564 C.ar      1 <0>        -0.0637
      3 C3          2.2164   -3.9879    4.1837 C.ar      1 <0>        -0.1239
      4 C4          1.5387   -4.0880    2.9833 C.ar      1 <0>        -0.0886
      5 C5          1.4229   -5.3141    2.3549 C.ar      1 <0>        -0.1260
      6 C6          1.9852   -6.4396    2.9270 C.ar      1 <0>        -0.0687
      7 C7          2.6668   -6.3388    4.1256 C.ar      1 <0>        -0.1239
      8 C8          1.8586   -7.7761    2.2423 C.3       1 <0>        -0.1180
      9 C9          0.6832   -5.4234    1.0466 C.3       1 <0>         0.1628
     10 N1         -0.6693   -5.9306    1.2912 N.am      1 <0>        -0.7222
     11 C10        -1.5182   -6.1108    0.2599 C.2       1 <0>         0.5145
     12 O1         -1.1624   -5.8531   -0.8705 O.2       1 <0>        -0.5191
     13 C11        -2.9094   -6.6325    0.5116 C.3       1 <0>        -0.1151
     14 H1         -3.2449   -6.3507    1.5096 H         1 <0>         0.1194
     15 C12        -3.8873   -6.0940   -0.5567 C.3       1 <0>         0.1124
     16 N2         -3.9425   -7.1599   -1.5848 N.am      1 <0>        -0.6188
     17 C13        -3.9346   -8.4224   -0.8078 C.3       1 <0>         0.1107
     18 C14        -2.9462   -8.1611    0.3461 C.3       1 <0>        -0.0727
     19 C15        -3.4452   -8.8196    1.6286 C.3       1 <0>        -0.1339
     20 C16        -3.4174  -10.3413    1.4599 C.3       1 <0>        -0.0105
     21 N3         -2.0478  -10.7778    1.1628 N.4       1 <0>        -0.5048
     22 C17        -1.6096  -10.2136   -0.1196 C.3       1 <0>        -0.0100
     23 C18        -1.5608   -8.6866   -0.0176 C.3       1 <0>        -0.1486
     24 C19        -3.9898   -7.0143   -2.9239 C.2       1 <0>         0.5496
     25 O2         -4.0325   -7.9928   -3.6391 O.2       1 <0>        -0.5002
     26 C20        -3.9896   -5.6356   -3.5324 C.3       1 <0>         0.0428
     27 O3         -4.0441   -5.7434   -4.9563 O.3       1 <0>        -0.2769
     28 C21        -4.0511   -4.5821   -5.6635 C.ar      1 <0>         0.1174
     29 C22        -4.0008   -3.3680   -5.0027 C.ar      1 <0>        -0.1631
     30 C23        -4.0073   -2.1765   -5.7128 C.ar      1 <0>        -0.0972
     31 C24        -4.0641   -2.1854   -7.0882 C.ar      1 <0>        -0.0904
     32 C25        -4.1151   -3.4046   -7.7722 C.ar      1 <0>        -0.1113
     33 C26        -4.1033   -4.6127   -7.0556 C.ar      1 <0>         0.1219
     34 O4         -4.1478   -5.7887   -7.7187 O.3       1 <0>        -0.2594
     35 C27        -4.1983   -5.8359   -9.0586 C.2       1 <0>         0.5065
     36 O5         -4.2377   -6.9194   -9.6132 O.2       1 <0>        -0.4585
     37 C28        -4.2074   -4.6612   -9.8419 C.2       1 <0>        -0.2428
     38 C29        -4.1762   -3.4470   -9.2367 C.2       1 <0>         0.0236
     39 C30        -4.1859   -2.1772  -10.0481 C.3       1 <0>        -0.1285
     40 H2          4.5693   -4.7960    5.8721 H         1 <0>         0.0769
     41 H3          3.0890   -4.1963    6.6578 H         1 <0>         0.0712
     42 H4          3.4273   -5.9432    6.6124 H         1 <0>         0.0691
     43 H5          2.3069   -3.0302    4.6745 H         1 <0>         0.1276
     44 H6          1.0993   -3.2085    2.5363 H         1 <0>         0.1259
     45 H7          3.1095   -7.2176    4.5708 H         1 <0>         0.1243
     46 H8          2.7027   -7.9203    1.5679 H         1 <0>         0.0753
     47 H9          1.8521   -8.5686    2.9907 H         1 <0>         0.0666
     48 H10         0.9295   -7.8062    1.6732 H         1 <0>         0.0600
     49 H11         0.6236   -4.4403    0.5796 H         1 <0>         0.0797
     50 H12         1.2139   -6.1082    0.3852 H         1 <0>         0.0791
     51 H13        -0.9539   -6.1367    2.1953 H         1 <0>         0.4013
     52 H14        -4.8740   -5.9336   -0.1223 H         1 <0>         0.0949
     53 H15        -3.5063   -5.1687   -0.9887 H         1 <0>         0.0966
     54 H16        -4.9292   -8.6336   -0.4149 H         1 <0>         0.0879
     55 H17        -3.5862   -9.2485   -1.4277 H         1 <0>         0.0902
     56 H18        -2.8000   -8.5338    2.4593 H         1 <0>         0.0980
     57 H19        -4.4657   -8.4946    1.8312 H         1 <0>         0.1229
     58 H20        -3.7578  -10.8150    2.3807 H         1 <0>         0.1407
     59 H21        -4.0757  -10.6278    0.6397 H         1 <0>         0.1337
     60 H22        -1.4296  -10.4635    1.8958 H         1 <0>         0.4269
     61 H23        -0.6173  -10.5932   -0.3631 H         1 <0>         0.1392
     62 H24        -2.3110  -10.5031   -0.9021 H         1 <0>         0.1355
     63 H25        -1.2527   -8.2676   -0.9756 H         1 <0>         0.1246
     64 H26        -0.8474   -8.3960    0.7535 H         1 <0>         0.0955
     65 H27        -4.8579   -5.0812   -3.1765 H         1 <0>         0.0966
     66 H28        -3.0794   -5.1106   -3.2424 H         1 <0>         0.1028
     67 H29        -3.9563   -3.3475   -3.9238 H         1 <0>         0.1421
     68 H30        -3.9679   -1.2360   -5.1834 H         1 <0>         0.1420
     69 H31        -4.0697   -1.2551   -7.6368 H         1 <0>         0.1458
     70 H32        -4.2481   -4.7287  -10.9190 H         1 <0>         0.1673
     71 H33        -3.1616   -1.8903  -10.2861 H         1 <0>         0.0935
     72 H34        -4.7413   -2.3404  -10.9717 H         1 <0>         0.0871
     73 H35        -4.6617   -1.3825   -9.4736 H         1 <0>         0.0830
     74 H36        -2.0206  -11.7851    1.1124 H         1 <0>         0.4348
@<TRIPOS>BOND
     1    1    2 1
     2    1   40 1
     3    1   41 1
     4    1   42 1
     5    2    7 ar
     6    2    3 ar
     7    3    4 ar
     8    3   43 1
     9    4    5 ar
    10    4   44 1
    11    5    6 ar
    12    5    9 1
    13    6    7 ar
    14    6    8 1
    15    7   45 1
    16    8   46 1
    17    8   47 1
    18    8   48 1
    19    9   10 1
    20    9   49 1
    21    9   50 1
    22   10   11 am
    23   10   51 1
    24   11   12 2
    25   11   13 1
    26   13   14 1
    27   13   18 1
    28   13   15 1
    29   15   16 1
    30   15   52 1
    31   15   53 1
    32   16   17 1
    33   16   24 am
    34   17   18 1
    35   17   54 1
    36   17   55 1
    37   18   23 1
    38   18   19 1
    39   19   20 1
    40   19   56 1
    41   19   57 1
    42   20   21 1
    43   20   58 1
    44   20   59 1
    45   21   22 1
    46   21   60 1
    47   21   74 1
    48   22   23 1
    49   22   61 1
    50   22   62 1
    51   23   63 1
    52   23   64 1
    53   24   25 2
    54   24   26 1
    55   26   27 1
    56   26   65 1
    57   26   66 1
    58   27   28 1
    59   28   33 ar
    60   28   29 ar
    61   29   30 ar
    62   29   67 1
    63   30   31 ar
    64   30   68 1
    65   31   32 ar
    66   31   69 1
    67   32   38 1
    68   32   33 ar
    69   33   34 1
    70   34   35 1
    71   35   36 2
    72   35   37 1
    73   37   38 2
    74   37   70 1
    75   38   39 1
    76   39   71 1
    77   39   72 1
    78   39   73 1
