@<TRIPOS>MOLECULE
ZINC67234050
   45    47     0     0     0
SMALL
USER_CHARGES

@<TRIPOS>ATOM
      1 C1          1.6112    1.7216   -0.8981 C.3       1 <0>        -0.1526
      2 C2          0.7127    0.7951   -0.0764 C.3       1 <0>         0.1357
      3 C3         -0.5458    1.5523    0.3627 C.3       1 <0>         0.0564
      4 O1         -0.1803    2.5707    1.2971 O.3       1 <0>        -0.3722
      5 C4          0.3993    2.0749    2.5062 C.3       1 <0>         0.0450
      6 C5          1.7062    1.3444    2.1769 C.3       1 <0>         0.0404
      7 N1          1.4302    0.3494    1.1285 N.am      1 <0>        -0.6024
      8 C6          1.8235   -0.9322    1.2676 C.2       1 <0>         0.5637
      9 O2          1.7005   -1.7098    0.3410 O.2       1 <0>        -0.5184
     10 C7          2.4033   -1.3918    2.5447 C.ar      1 <0>        -0.1276
     11 C8          1.9602   -0.8450    3.7520 C.ar      1 <0>        -0.0868
     12 C9          2.5028   -1.2763    4.9414 C.ar      1 <0>        -0.1274
     13 C10         3.4913   -2.2554    4.9425 C.ar      1 <0>         0.1502
     14 C11         3.9351   -2.8015    3.7422 C.ar      1 <0>        -0.0976
     15 C12         3.3926   -2.3789    2.5496 C.ar      1 <0>        -0.0445
     16 N2          4.0388   -2.6899    6.1490 N.am      1 <0>        -0.3665
     17 C13         5.3761   -2.7331    6.2992 C.2       1 <0>         0.5217
     18 O3          6.0975   -2.3902    5.3867 O.2       1 <0>        -0.4978
     19 C14         5.9801   -3.2050    7.5959 C.3       1 <0>        -0.1367
     20 C15         5.0871   -2.7788    8.7622 C.3       1 <0>        -0.1420
     21 C16         3.6557   -3.1366    8.4588 C.2       1 <0>         0.5242
     22 O4          2.9155   -3.4784    9.3566 O.2       1 <0>        -0.5133
     23 N3          3.1944   -3.0727    7.1973 N.am      1 <0>        -0.5160
     24 C17         0.3167   -0.4190   -0.9191 C.3       1 <0>        -0.1361
     25 H1          2.5135    1.1856   -1.1923 H         1 <0>         0.0604
     26 H2          1.0765    2.0496   -1.7895 H         1 <0>         0.0709
     27 H3          1.8837    2.5897   -0.2978 H         1 <0>         0.0641
     28 H4         -1.0181    2.0089   -0.5072 H         1 <0>         0.1090
     29 H5         -1.2422    0.8588    0.8339 H         1 <0>         0.0578
     30 H6          0.6070    2.9074    3.1785 H         1 <0>         0.1100
     31 H7         -0.2937    1.3832    2.9852 H         1 <0>         0.0567
     32 H8          2.4463    2.0598    1.8184 H         1 <0>         0.0819
     33 H9          2.0814    0.8432    3.0691 H         1 <0>         0.1182
     34 H10         1.1932   -0.0847    3.7519 H         1 <0>         0.1464
     35 H11         2.1611   -0.8538    5.8748 H         1 <0>         0.1369
     36 H12         4.7031   -3.5609    3.7464 H         1 <0>         0.1390
     37 H13         3.7343   -2.8064    1.6186 H         1 <0>         0.1439
     38 H14         6.0656   -4.2915    7.5823 H         1 <0>         0.1148
     39 H15         6.9698   -2.7647    7.7168 H         1 <0>         0.1255
     40 H16         5.4052   -3.2924    9.6695 H         1 <0>         0.1243
     41 H17         5.1691   -1.7016    8.9075 H         1 <0>         0.1126
     42 H18         2.2691   -3.2977    7.0128 H         1 <0>         0.4262
     43 H19         1.2105   -0.8670   -1.3533 H         1 <0>         0.0846
     44 H20        -0.1864   -1.1512   -0.2875 H         1 <0>         0.0643
     45 H21        -0.3559   -0.1039   -1.7167 H         1 <0>         0.0530
@<TRIPOS>BOND
     1    1    2 1
     2    1   25 1
     3    1   26 1
     4    1   27 1
     5    2    7 1
     6    2    3 1
     7    2   24 1
     8    3    4 1
     9    3   28 1
    10    3   29 1
    11    4    5 1
    12    5    6 1
    13    5   30 1
    14    5   31 1
    15    6    7 1
    16    6   32 1
    17    6   33 1
    18    7    8 am
    19    8    9 2
    20    8   10 1
    21   10   15 ar
    22   10   11 ar
    23   11   12 ar
    24   11   34 1
    25   12   13 ar
    26   12   35 1
    27   13   14 ar
    28   13   16 1
    29   14   15 ar
    30   14   36 1
    31   15   37 1
    32   16   23 1
    33   16   17 am
    34   17   18 2
    35   17   19 1
    36   19   20 1
    37   19   38 1
    38   19   39 1
    39   20   21 1
    40   20   40 1
    41   20   41 1
    42   21   22 2
    43   21   23 am
    44   23   42 1
    45   24   43 1
    46   24   44 1
    47   24   45 1
