@<TRIPOS>MOLECULE
ZINC03830996
   62    63     0     0     0
SMALL
USER_CHARGES

@<TRIPOS>ATOM
      1 C1         -0.0469    1.3576   -0.5928 C.3       1 <0>        -0.1585
      2 C2          0.0103   -0.1685   -0.4991 C.3       1 <0>        -0.1257
      3 C3         -1.4107   -0.7349   -0.5288 C.3       1 <0>        -0.1125
      4 C4         -1.3534   -2.2610   -0.4352 C.3       1 <0>        -0.1069
      5 H1         -0.7079   -2.6698   -1.2125 H         1 <0>         0.1095
      6 C5         -0.8723   -2.7055    0.9652 C.3       1 <0>        -0.1351
      7 C6         -1.7351   -3.9317    1.3164 C.3       1 <0>         0.0035
      8 H2         -2.3281   -3.7255    2.2075 H         1 <0>         0.1636
      9 N1         -2.6277   -4.1788    0.1633 N.4       1 <0>        -0.3808
     10 C7         -2.7753   -2.8697   -0.5270 C.3       1 <0>        -0.0025
     11 C8         -3.9361   -4.6575    0.6290 C.3       1 <0>        -0.0427
     12 C9         -0.8523   -5.1297    1.5535 C.2       1 <0>         0.5206
     13 O1         -0.9577   -6.1100    0.8471 O.2       1 <0>        -0.5102
     14 N2          0.0545   -5.1119    2.5504 N.am      1 <0>        -0.6933
     15 C10         0.9128   -6.2766    2.7808 C.3       1 <0>         0.1321
     16 H3          1.1581   -6.7418    1.8261 H         1 <0>         0.1212
     17 C11         2.2004   -5.8315    3.4770 C.3       1 <0>         0.0908
     18 H4          1.9530   -5.3277    4.4114 H         1 <0>         0.0799
     19 C12         2.9672   -4.8695    2.5658 C.3       1 <0>         0.0968
     20 H5          2.3664   -3.9770    2.3905 H         1 <0>         0.0619
     21 C13         4.2830   -4.4757    3.2439 C.3       1 <0>         0.0800
     22 H6          4.0704   -3.9421    4.1703 H         1 <0>         0.0766
     23 C14         5.0836   -5.7440    3.5553 C.3       1 <0>         0.0696
     24 H7          5.9965   -5.4769    4.0877 H         1 <0>         0.0765
     25 C15         4.2352   -6.6722    4.4283 C.3       1 <0>         0.0804
     26 H8          4.0145   -6.1795    5.3752 H         1 <0>         0.0848
     27 O2          3.0129   -6.9744    3.7525 O.3       1 <0>        -0.3381
     28 S1          5.1480   -8.2078    4.7437 S.3       1 <0>        -0.1940
     29 C16         4.0873   -9.1195    5.8987 C.3       1 <0>        -0.1227
     30 O3          5.4193   -6.4084    2.3355 O.3       1 <0>        -0.5201
     31 O4          5.0381   -3.6342    2.3700 O.3       1 <0>        -0.5492
     32 O5          3.2442   -5.5110    1.3193 O.3       1 <0>        -0.5263
     33 C17         0.1772   -7.2852    3.6654 C.3       1 <0>         0.0925
     34 H9          0.8503   -8.1037    3.9204 H         1 <0>         0.0794
     35 C18        -0.2921   -6.5929    4.9466 C.3       1 <0>        -0.1488
     36 O6         -0.9541   -7.8008    2.9608 O.3       1 <0>        -0.5582
     37 H10         0.9654    1.7611   -0.5716 H         1 <0>         0.0613
     38 H11        -0.5338    1.6464   -1.5243 H         1 <0>         0.0583
     39 H12        -0.6132    1.7524    0.2508 H         1 <0>         0.0566
     40 H13         0.5766   -0.5633   -1.3427 H         1 <0>         0.0675
     41 H14         0.4972   -0.4573    0.4324 H         1 <0>         0.0640
     42 H15        -1.9769   -0.3401    0.3147 H         1 <0>         0.0765
     43 H16        -1.8975   -0.4461   -1.4603 H         1 <0>         0.0813
     44 H17         0.1817   -2.9812    0.9332 H         1 <0>         0.1072
     45 H18        -1.0339   -1.9087    1.6912 H         1 <0>         0.1176
     46 H19        -3.4973   -2.2409   -0.0061 H         1 <0>         0.1382
     47 H20        -3.0668   -3.0108   -1.5678 H         1 <0>         0.1424
     48 H21        -4.3886   -3.9061    1.2761 H         1 <0>         0.1218
     49 H22        -4.5842   -4.8358   -0.2291 H         1 <0>         0.1284
     50 H23        -3.8064   -5.5857    1.1854 H         1 <0>         0.1252
     51 H24         0.1388   -4.3280    3.1154 H         1 <0>         0.4049
     52 H25         3.9477   -8.5311    6.8056 H         1 <0>         0.0808
     53 H26         3.1192   -9.3054    5.4336 H         1 <0>         0.0862
     54 H27         4.5576  -10.0699    6.1511 H         1 <0>         0.1109
     55 H28         5.9280   -7.2217    2.4577 H         1 <0>         0.3808
     56 H29         5.8855   -3.3463    2.7362 H         1 <0>         0.3909
     57 H30         3.7292   -4.9580    0.6916 H         1 <0>         0.3867
     58 H31        -0.9653   -5.7744    4.6916 H         1 <0>         0.0579
     59 H32        -0.8162   -7.3114    5.5768 H         1 <0>         0.0714
     60 H33         0.5708   -6.1997    5.4841 H         1 <0>         0.0690
     61 H34        -0.7261   -8.3278    2.1828 H         1 <0>         0.3850
     62 H35        -2.2111   -4.8532   -0.4609 H         1 <0>         0.4348
@<TRIPOS>BOND
     1    1    2 1
     2    1   37 1
     3    1   38 1
     4    1   39 1
     5    2    3 1
     6    2   40 1
     7    2   41 1
     8    3    4 1
     9    3   42 1
    10    3   43 1
    11    4    5 1
    12    4   10 1
    13    4    6 1
    14    6    7 1
    15    6   44 1
    16    6   45 1
    17    7    8 1
    18    7    9 1
    19    7   12 1
    20    9   10 1
    21    9   11 1
    22    9   62 1
    23   10   46 1
    24   10   47 1
    25   11   48 1
    26   11   49 1
    27   11   50 1
    28   12   13 2
    29   12   14 am
    30   14   15 1
    31   14   51 1
    32   15   16 1
    33   15   17 1
    34   15   33 1
    35   17   18 1
    36   17   27 1
    37   17   19 1
    38   19   20 1
    39   19   21 1
    40   19   32 1
    41   21   22 1
    42   21   23 1
    43   21   31 1
    44   23   24 1
    45   23   25 1
    46   23   30 1
    47   25   26 1
    48   25   27 1
    49   25   28 1
    50   28   29 1
    51   29   52 1
    52   29   53 1
    53   29   54 1
    54   30   55 1
    55   31   56 1
    56   32   57 1
    57   33   34 1
    58   33   35 1
    59   33   36 1
    60   35   58 1
    61   35   59 1
    62   35   60 1
    63   36   61 1
