@<TRIPOS>MOLECULE
ZINC04730149
   49    53     0     0     0
SMALL
USER_CHARGES

@<TRIPOS>ATOM
      1 C1         -0.0167    1.3782    0.0096 C.ar      1 <0>        -0.1078
      2 C2          1.1700    2.0882    0.0021 C.ar      1 <0>        -0.0725
      3 C3          2.3773    1.4175   -0.0134 C.ar      1 <0>        -0.1283
      4 C4          2.3989    0.0301   -0.0210 C.ar      1 <0>         0.1447
      5 C5          1.2072   -0.6797   -0.0130 C.ar      1 <0>        -0.1699
      6 C6          0.0021   -0.0041    0.0020 C.ar      1 <0>        -0.1125
      7 C7          1.2269   -2.1866   -0.0218 C.3       1 <0>         0.0899
      8 H1          2.0662   -2.5396   -0.6209 H         1 <0>         0.1590
      9 C8          1.3596   -2.7096    1.4119 C.3       1 <0>        -0.1532
     10 C9          1.0767   -4.1867    1.4319 C.2       1 <0>         0.2778
     11 N1          0.5083   -4.7972    0.4590 N.2       1 <0>        -0.5208
     12 C10         0.0800   -4.1466   -0.7727 C.3       1 <0>         0.2596
     13 H2          0.8085   -4.3497   -1.5575 H         1 <0>         0.1652
     14 N2         -0.0342   -2.6962   -0.5852 N.4       1 <0>        -0.5357
     15 C11        -1.2599   -4.6993   -1.1852 C.ar      1 <0>        -0.1254
     16 C12        -2.1478   -3.9064   -1.8885 C.ar      1 <0>        -0.1260
     17 C13        -3.3770   -4.4127   -2.2673 C.ar      1 <0>        -0.0900
     18 C14        -3.7194   -5.7120   -1.9426 C.ar      1 <0>        -0.0825
     19 C15        -2.8315   -6.5057   -1.2389 C.ar      1 <0>        -0.0307
     20 C16        -1.5987   -6.0003   -0.8654 C.ar      1 <0>        -0.0547
     21 Cl1        -3.2608   -8.1376   -0.8308 Cl        1 <0>        -0.0380
     22 C17         1.4703   -4.9651    2.6206 C.ar      1 <0>        -0.0933
     23 C18         2.0873   -4.3296    3.7013 C.ar      1 <0>        -0.0666
     24 C19         2.4538   -5.0589    4.8115 C.ar      1 <0>        -0.1082
     25 C20         2.2129   -6.4252    4.8611 C.ar      1 <0>         0.0780
     26 C21         1.5974   -7.0659    3.7854 C.ar      1 <0>         0.0274
     27 C22         1.2222   -6.3393    2.6718 C.ar      1 <0>        -0.0427
     28 O1          1.4763   -8.3935    4.0806 O.3       1 <0>        -0.3015
     29 C23         2.3891   -8.6295    5.1687 C.3       1 <0>         0.2111
     30 O2          2.4752   -7.3520    5.8270 O.3       1 <0>        -0.2993
     31 O3          3.5855   -0.6321   -0.0368 O.3       1 <0>        -0.4932
     32 H3         -0.9596    1.9045    0.0259 H         1 <0>         0.1409
     33 H4          1.1527    3.1681    0.0080 H         1 <0>         0.1431
     34 H5          3.3038    1.9724   -0.0200 H         1 <0>         0.1459
     35 H6         -0.9260   -0.5563    0.0079 H         1 <0>         0.1205
     36 H7          2.3719   -2.5283    1.7729 H         1 <0>         0.1426
     37 H8          0.6461   -2.1940    2.0546 H         1 <0>         0.1293
     38 H9         -0.7928   -2.4969    0.0496 H         1 <0>         0.4277
     39 H10        -1.8810   -2.8910   -2.1418 H         1 <0>         0.1230
     40 H11        -4.0701   -3.7929   -2.8166 H         1 <0>         0.1471
     41 H12        -4.6801   -6.1072   -2.2379 H         1 <0>         0.1475
     42 H13        -0.9033   -6.6210   -0.3198 H         1 <0>         0.1544
     43 H14         2.2771   -3.2670    3.6663 H         1 <0>         0.1455
     44 H15         2.9305   -4.5659    5.6459 H         1 <0>         0.1492
     45 H16         0.7415   -6.8334    1.8404 H         1 <0>         0.1498
     46 H17         1.9896   -9.3835    5.8469 H         1 <0>         0.1420
     47 H18         3.3656   -8.9320    4.7906 H         1 <0>         0.0948
     48 H19         3.9380   -0.8285    0.8420 H         1 <0>         0.4017
     49 H20        -0.2105   -2.2530   -1.4743 H         1 <0>         0.4350
@<TRIPOS>BOND
     1    1    6 ar
     2    1    2 ar
     3    1   32 1
     4    2    3 ar
     5    2   33 1
     6    3    4 ar
     7    3   34 1
     8    4    5 ar
     9    4   31 1
    10    5    6 ar
    11    5    7 1
    12    6   35 1
    13    7    8 1
    14    7   14 1
    15    7    9 1
    16    9   10 1
    17    9   36 1
    18    9   37 1
    19   10   11 2
    20   10   22 1
    21   11   12 1
    22   12   13 1
    23   12   14 1
    24   12   15 1
    25   14   38 1
    26   14   49 1
    27   15   20 ar
    28   15   16 ar
    29   16   17 ar
    30   16   39 1
    31   17   18 ar
    32   17   40 1
    33   18   19 ar
    34   18   41 1
    35   19   20 ar
    36   19   21 1
    37   20   42 1
    38   22   27 ar
    39   22   23 ar
    40   23   24 ar
    41   23   43 1
    42   24   25 ar
    43   24   44 1
    44   25   30 1
    45   25   26 ar
    46   26   27 ar
    47   26   28 1
    48   27   45 1
    49   28   29 1
    50   29   30 1
    51   29   46 1
    52   29   47 1
    53   31   48 1
