@<TRIPOS>MOLECULE
ZINC59384888
   43    45     0     0     0
SMALL
USER_CHARGES

@<TRIPOS>ATOM
      1 C1          0.6348    1.2209   -0.1377 C.3       1 <0>        -0.1325
      2 C2          0.3792   -0.2626   -0.0675 C.2       1 <0>         0.1782
      3 C3         -0.8858   -0.7237   -0.1655 C.2       1 <0>        -0.2479
      4 C4         -1.0982   -2.2222   -0.0905 C.3       1 <0>         0.2207
      5 H1         -1.7730   -2.4247    0.7411 H         1 <0>         0.1108
      6 N1          0.1015   -3.0581    0.0844 N.pl3     1 <0>        -0.6460
      7 C5          1.3011   -2.4494    0.1663 C.2       1 <0>         0.5578
      8 S1          2.7044   -3.4088    0.3691 S.2       1 <0>        -0.5904
      9 N2          1.4316   -1.1190    0.0886 N.pl3     1 <0>        -0.5986
     10 C6         -1.7863   -2.6579   -1.3585 C.ar      1 <0>        -0.1159
     11 C7         -1.0377   -3.0769   -2.4424 C.ar      1 <0>        -0.0905
     12 C8         -1.6687   -3.4767   -3.6054 C.ar      1 <0>        -0.1113
     13 C9         -3.0489   -3.4576   -3.6854 C.ar      1 <0>        -0.0956
     14 C10        -3.7983   -3.0389   -2.6024 C.ar      1 <0>        -0.1064
     15 C11        -3.1674   -2.6441   -1.4359 C.ar      1 <0>        -0.0241
     16 Cl1        -4.1084   -2.1242   -0.0728 Cl        1 <0>        -0.0413
     17 C12        -1.9774    0.1629   -0.3324 C.2       1 <0>         0.6126
     18 O1         -2.6775    0.4530    0.6211 O.2       1 <0>        -0.4696
     19 N3         -2.2415    0.6857   -1.5462 N.am      1 <0>        -0.5776
     20 N4         -3.2592    1.6373   -1.6926 N.2       1 <0>        -0.1875
     21 C13        -3.4498    2.2123   -2.8405 C.2       1 <0>         0.0890
     22 C14        -4.4461    3.2916   -2.9681 C.ar      1 <0>        -0.0417
     23 C15        -4.6579    3.9087   -4.2036 C.ar      1 <0>        -0.0671
     24 C16        -5.5914    4.9171   -4.3163 C.ar      1 <0>        -0.1112
     25 C17        -6.3188    5.3196   -3.2082 C.ar      1 <0>        -0.0111
     26 C18        -6.1144    4.7134   -1.9805 C.ar      1 <0>        -0.1096
     27 C19        -5.1873    3.6982   -1.8547 C.ar      1 <0>        -0.0037
     28 Cl2        -4.9370    2.9338   -0.3163 Cl        1 <0>        -0.0007
     29 Cl3        -7.4916    6.5905   -3.3597 Cl        1 <0>        -0.0516
     30 H2          1.7044    1.4099   -0.0468 H         1 <0>         0.0888
     31 H3          0.2776    1.6063   -1.0927 H         1 <0>         0.0941
     32 H4          0.1073    1.7194    0.6755 H         1 <0>         0.1014
     33 H5          0.0299   -4.0239    0.1397 H         1 <0>         0.4489
     34 H6          2.3232   -0.7421    0.1507 H         1 <0>         0.4425
     35 H7          0.0404   -3.0917   -2.3806 H         1 <0>         0.1284
     36 H8         -1.0834   -3.8036   -4.4521 H         1 <0>         0.1340
     37 H9         -3.5413   -3.7697   -4.5945 H         1 <0>         0.1366
     38 H10        -4.8764   -3.0238   -2.6651 H         1 <0>         0.1378
     39 H11        -1.7269    0.4031   -2.3184 H         1 <0>         0.3828
     40 H12        -2.8785    1.9001   -3.7023 H         1 <0>         0.1272
     41 H13        -4.0912    3.5967   -5.0684 H         1 <0>         0.1475
     42 H14        -5.7557    5.3946   -5.2710 H         1 <0>         0.1455
     43 H15        -6.6843    5.0324   -1.1204 H         1 <0>         0.1476
@<TRIPOS>BOND
     1    1    2 1
     2    1   30 1
     3    1   31 1
     4    1   32 1
     5    2    9 1
     6    2    3 2
     7    3    4 1
     8    3   17 1
     9    4    5 1
    10    4    6 1
    11    4   10 1
    12    6    7 1
    13    6   33 1
    14    7    8 2
    15    7    9 1
    16    9   34 1
    17   10   15 ar
    18   10   11 ar
    19   11   12 ar
    20   11   35 1
    21   12   13 ar
    22   12   36 1
    23   13   14 ar
    24   13   37 1
    25   14   15 ar
    26   14   38 1
    27   15   16 1
    28   17   18 2
    29   17   19 am
    30   19   20 1
    31   19   39 1
    32   20   21 2
    33   21   22 1
    34   21   40 1
    35   22   27 ar
    36   22   23 ar
    37   23   24 ar
    38   23   41 1
    39   24   25 ar
    40   24   42 1
    41   25   26 ar
    42   25   29 1
    43   26   27 ar
    44   26   43 1
    45   27   28 1
