@<TRIPOS>MOLECULE
ZINC38667064
   68    71     0     0     0
SMALL
USER_CHARGES

@<TRIPOS>ATOM
      1 C1         -2.1226    6.8337    5.2011 C.3       1 <0>        -0.1211
      2 C2         -3.3924    6.3772    5.8720 C.ar      1 <0>        -0.1033
      3 C3         -4.4301    7.2676    6.0668 C.ar      1 <0>        -0.0360
      4 C4         -5.5956    6.8495    6.6823 C.ar      1 <0>        -0.0585
      5 C5         -5.7264    5.5391    7.1053 C.ar      1 <0>        -0.0393
      6 C6         -4.6929    4.6438    6.9141 C.ar      1 <0>        -0.1184
      7 C7         -3.5228    5.0589    6.2900 C.ar      1 <0>         0.1922
      8 N1         -2.4773    4.1540    6.0893 N.am      1 <0>        -0.6440
      9 C8         -2.2427    3.1836    6.9947 C.2       1 <0>         0.5121
     10 O1         -2.9934    3.0389    7.9374 O.2       1 <0>        -0.4872
     11 C9         -1.0591    2.2863    6.8380 C.2       1 <0>         0.5123
     12 O2         -0.3085    2.4310    5.8954 O.2       1 <0>        -0.5100
     13 N2         -0.8246    1.3160    7.7435 N.am      1 <0>        -0.6878
     14 C10         0.3365    0.4358    7.5898 C.3       1 <0>         0.1233
     15 C11         0.3038   -0.6451    8.6721 C.3       1 <0>         0.1237
     16 H1         -0.6240   -1.2114    8.5922 H         1 <0>         0.0574
     17 C12         0.3819    0.0020   10.0309 C.ar      1 <0>        -0.1545
     18 C13         1.6031    0.4210   10.5263 C.ar      1 <0>        -0.0363
     19 C14         1.6782    1.0144   11.7711 C.ar      1 <0>        -0.2001
     20 C15         0.5252    1.1902   12.5257 C.ar      1 <0>         0.2209
     21 C16        -0.6999    0.7682   12.0250 C.ar      1 <0>        -0.1962
     22 C17        -0.7686    0.1807   10.7770 C.ar      1 <0>        -0.0678
     23 N3          0.5976    1.7896   13.7852 N.pl3     1 <0>        -0.6373
     24 C18         1.8905    2.2336   14.3119 C.3       1 <0>         0.0915
     25 C19        -0.6194    1.9742   14.5796 C.3       1 <0>         0.0913
     26 N4          1.4470   -1.5505    8.4946 N.3       1 <0>        -0.5181
     27 C20         1.4580   -2.1267    7.1406 C.3       1 <0>         0.0409
     28 C21         2.8310   -2.7508    6.8897 C.3       1 <0>        -0.0749
     29 C22         3.1988   -3.6612    8.0331 C.ar      1 <0>        -0.0693
     30 C23         4.2159   -4.5845    7.8425 C.ar      1 <0>        -0.1205
     31 C24         4.5865   -5.4347    8.8648 C.ar      1 <0>        -0.1192
     32 C25         3.9410   -5.3649   10.0855 C.ar      1 <0>        -0.1217
     33 C26         2.9278   -4.4472   10.2757 C.ar      1 <0>        -0.1149
     34 C27         2.5522   -3.5939    9.2484 C.ar      1 <0>        -0.0776
     35 C28         1.4335   -2.6173    9.5004 C.3       1 <0>         0.0989
     36 N5         -6.7056    7.8066    6.8895 N.pl3     1 <0>         0.0351
     37 O3         -6.5926    8.9524    6.5206 O.2       1 <0>        -0.1587
     38 O4         -7.7252    7.4426    7.4275 O.3       1 <0>        -0.1573
     39 H2         -2.2097    6.6924    4.1238 H         1 <0>         0.0845
     40 H3         -1.9569    7.8892    5.4168 H         1 <0>         0.0837
     41 H4         -1.2826    6.2498    5.5774 H         1 <0>         0.0743
     42 H5         -4.3310    8.2916    5.7384 H         1 <0>         0.1599
     43 H6         -6.6380    5.2160    7.5861 H         1 <0>         0.1592
     44 H7         -4.7954    3.6210    7.2453 H         1 <0>         0.1645
     45 H8         -1.9203    4.2242    5.2982 H         1 <0>         0.4302
     46 H9         -1.4245    1.2003    8.4969 H         1 <0>         0.4140
     47 H10         0.3089   -0.0337    6.6065 H         1 <0>         0.0845
     48 H11         1.2511    1.0205    7.6877 H         1 <0>         0.0878
     49 H12         2.4991    0.2837    9.9393 H         1 <0>         0.1305
     50 H13         2.6322    1.3411   12.1576 H         1 <0>         0.1219
     51 H14        -1.5982    0.9031   12.6092 H         1 <0>         0.1227
     52 H15        -1.7214   -0.1437   10.3853 H         1 <0>         0.1180
     53 H16         2.0699    3.2660   14.0117 H         1 <0>         0.0489
     54 H17         1.8816    2.1679   15.3998 H         1 <0>         0.0672
     55 H18         2.6820    1.5974   13.9159 H         1 <0>         0.0697
     56 H19        -0.7800    1.0977   15.2074 H         1 <0>         0.0493
     57 H20        -0.5118    2.8574   15.2093 H         1 <0>         0.0671
     58 H21        -1.4720    2.1049   13.9132 H         1 <0>         0.0693
     59 H22         0.6874   -2.8936    7.0627 H         1 <0>         0.0433
     60 H23         1.2729   -1.3419    6.4071 H         1 <0>         0.0879
     61 H24         2.8036   -3.3254    5.9639 H         1 <0>         0.0797
     62 H25         3.5770   -1.9609    6.8017 H         1 <0>         0.0860
     63 H26         4.7204   -4.6388    6.8891 H         1 <0>         0.1212
     64 H27         5.3784   -6.1529    8.7114 H         1 <0>         0.1215
     65 H28         4.2288   -6.0273   10.8884 H         1 <0>         0.1217
     66 H29         2.4244   -4.3933   11.2297 H         1 <0>         0.1202
     67 H30         1.5548   -2.1792   10.4911 H         1 <0>         0.0940
     68 H31         0.4798   -3.1431    9.4545 H         1 <0>         0.0480
@<TRIPOS>BOND
     1    1    2 1
     2    1   39 1
     3    1   40 1
     4    1   41 1
     5    2    7 ar
     6    2    3 ar
     7    3    4 ar
     8    3   42 1
     9    4    5 ar
    10    4   36 1
    11    5    6 ar
    12    5   43 1
    13    6    7 ar
    14    6   44 1
    15    7    8 1
    16    8    9 am
    17    8   45 1
    18    9   10 2
    19    9   11 1
    20   11   12 2
    21   11   13 am
    22   13   14 1
    23   13   46 1
    24   14   15 1
    25   14   47 1
    26   14   48 1
    27   15   16 1
    28   15   17 1
    29   15   26 1
    30   17   22 ar
    31   17   18 ar
    32   18   19 ar
    33   18   49 1
    34   19   20 ar
    35   19   50 1
    36   20   21 ar
    37   20   23 1
    38   21   22 ar
    39   21   51 1
    40   22   52 1
    41   23   24 1
    42   23   25 1
    43   24   53 1
    44   24   54 1
    45   24   55 1
    46   25   56 1
    47   25   57 1
    48   25   58 1
    49   26   35 1
    50   26   27 1
    51   27   28 1
    52   27   59 1
    53   27   60 1
    54   28   29 1
    55   28   61 1
    56   28   62 1
    57   29   34 ar
    58   29   30 ar
    59   30   31 ar
    60   30   63 1
    61   31   32 ar
    62   31   64 1
    63   32   33 ar
    64   32   65 1
    65   33   34 ar
    66   33   66 1
    67   34   35 1
    68   35   67 1
    69   35   68 1
    70   36   37 2
    71   36   38 1
