@<TRIPOS>MOLECULE
ZINC04241955
   48    51     0     0     0
SMALL
USER_CHARGES
2-[(2-fluorophenyl)-methyl-oxo-BLAHyl]sulfanylpropanamide
@<TRIPOS>ATOM
      1 C1         -1.2039   10.1766    0.1452 C.3       1 <0>        -0.1470
      2 C2         -0.8422    8.7165    0.4251 C.3       1 <0>        -0.0874
      3 H1         -0.6016    8.5955    1.4813 H         1 <0>         0.0771
      4 C3          0.3656    8.3142   -0.4263 C.3       1 <0>        -0.1170
      5 C4          0.8876    6.9498    0.0254 C.3       1 <0>        -0.0602
      6 C5         -0.2719    5.9574    0.0339 C.2       1 <0>        -0.0448
      7 C6         -1.5489    6.3898    0.0483 C.2       1 <0>        -0.1688
      8 S1         -2.5340    4.9161    0.0506 S.3       1 <0>         0.1492
      9 C7         -1.2233    3.7192    0.0326 C.2       1 <0>         0.1129
     10 C8         -0.0609    4.5084    0.0258 C.2       1 <0>        -0.2455
     11 C9          1.1784    3.7938    0.0108 C.2       1 <0>         0.5614
     12 O1          2.2387    4.3954    0.0045 O.2       1 <0>        -0.5019
     13 N1          1.1575    2.4482    0.0042 N.am      1 <0>        -0.4663
     14 C10        -0.0218    1.7577    0.0117 C.2       1 <0>         0.3658
     15 N2         -1.1767    2.3924    0.0207 N.2       1 <0>        -0.4928
     16 S2          0.0021   -0.0041    0.0020 S.3       1 <0>         0.1055
     17 C11        -1.7759   -0.3426    0.0172 C.3       1 <0>        -0.1204
     18 H2         -2.2511    0.1730   -0.8174 H         1 <0>         0.1316
     19 C12        -2.3784    0.1538    1.3330 C.3       1 <0>        -0.1474
     20 C13        -2.0059   -1.8263   -0.1124 C.2       1 <0>         0.5400
     21 O2         -1.1465   -2.6062    0.2399 O.2       1 <0>        -0.5239
     22 N3         -3.1666   -2.2865   -0.6199 N.am      1 <0>        -0.8417
     23 C14         2.3684    1.7415   -0.0103 C.ar      1 <0>         0.0497
     24 C15         2.9551    1.3916   -1.2185 C.ar      1 <0>        -0.0600
     25 C16         4.1505    0.6995   -1.2299 C.ar      1 <0>        -0.1191
     26 C17         4.7586    0.3454   -0.0394 C.ar      1 <0>        -0.0647
     27 C18         4.1755    0.6870    1.1667 C.ar      1 <0>        -0.1456
     28 C19         2.9811    1.3846    1.1855 C.ar      1 <0>         0.1323
     29 F1          2.4109    1.7182    2.3640 F         1 <0>        -0.1261
     30 C20        -2.0263    7.8100    0.0595 C.3       1 <0>        -0.0312
     31 H3         -1.4494   10.2942   -0.9102 H         1 <0>         0.0574
     32 H4         -2.0636   10.4607    0.7521 H         1 <0>         0.0579
     33 H5         -0.3564   10.8151    0.3944 H         1 <0>         0.0598
     34 H6          1.1532    9.0591   -0.3125 H         1 <0>         0.0724
     35 H7          0.0686    8.2598   -1.4736 H         1 <0>         0.0663
     36 H8          1.3051    7.0324    1.0289 H         1 <0>         0.0791
     37 H9          1.6585    6.6050   -0.6637 H         1 <0>         0.0862
     38 H10        -1.9032   -0.3617    2.1676 H         1 <0>         0.0724
     39 H11        -2.2121    1.2270    1.4268 H         1 <0>         0.0931
     40 H12        -3.4491   -0.0500    1.3421 H         1 <0>         0.0764
     41 H13        -3.8539   -1.6628   -0.9017 H         1 <0>         0.4062
     42 H14        -3.3146   -3.2415   -0.7033 H         1 <0>         0.4105
     43 H15         2.4792    1.6635   -2.1491 H         1 <0>         0.1388
     44 H16         4.6090    0.4309   -2.1702 H         1 <0>         0.1441
     45 H17         5.6909   -0.1996   -0.0519 H         1 <0>         0.1452
     46 H18         4.6526    0.4087    2.0948 H         1 <0>         0.1492
     47 H19        -2.8187    7.9251    0.7990 H         1 <0>         0.0843
     48 H20        -2.4033    8.0789   -0.9273 H         1 <0>         0.0868
@<TRIPOS>BOND
     1    1    2 1
     2    1   31 1
     3    1   32 1
     4    1   33 1
     5    2    3 1
     6    2   30 1
     7    2    4 1
     8    4    5 1
     9    4   34 1
    10    4   35 1
    11    5    6 1
    12    5   36 1
    13    5   37 1
    14    6   10 1
    15    6    7 2
    16    7    8 1
    17    7   30 1
    18    8    9 1
    19    9   15 1
    20    9   10 2
    21   10   11 1
    22   11   12 2
    23   11   13 am
    24   13   14 1
    25   13   23 1
    26   14   15 2
    27   14   16 1
    28   16   17 1
    29   17   18 1
    30   17   19 1
    31   17   20 1
    32   19   38 1
    33   19   39 1
    34   19   40 1
    35   20   21 2
    36   20   22 am
    37   22   41 1
    38   22   42 1
    39   23   28 ar
    40   23   24 ar
    41   24   25 ar
    42   24   43 1
    43   25   26 ar
    44   25   44 1
    45   26   27 ar
    46   26   45 1
    47   27   28 ar
    48   27   46 1
    49   28   29 1
    50   30   47 1
    51   30   48 1
