@<TRIPOS>MOLECULE
ZINC08681458
   61    63     0     0     0
SMALL
USER_CHARGES

@<TRIPOS>ATOM
      1 C1          0.6815    1.1407   -1.2368 C.3       1 <0>        -0.1461
      2 C2          0.6553   -0.3516   -0.9136 C.3       1 <0>        -0.0968
      3 H1          1.2416   -0.8536   -1.7167 H         1 <0>         0.0583
      4 C3         -0.7618   -0.8959   -1.0080 C.3       1 <0>        -0.1109
      5 C4         -1.5741   -0.5594    0.2457 C.3       1 <0>        -0.1204
      6 C5         -0.8504   -1.1726    1.4461 C.3       1 <0>        -0.0571
      7 H2         -0.6194   -2.2261    1.1517 H         1 <0>         0.0740
      8 C6          0.4879   -0.4804    1.6386 C.3       1 <0>        -0.0266
      9 C7          1.3549   -0.6677    0.3949 C.3       1 <0>         0.1344
     10 C8          1.8901   -2.1192    0.3307 C.3       1 <0>        -0.1526
     11 C9          3.1774   -1.9219   -0.5157 C.3       1 <0>        -0.1534
     12 C10         3.6612   -0.5313   -0.0565 C.3       1 <0>         0.1194
     13 O1          2.5384    0.1458    0.5225 O.3       1 <0>        -0.3363
     14 C11         4.7672   -0.6943    0.9915 C.3       1 <0>        -0.1154
     15 C12         5.9882   -1.3528    0.3462 C.3       1 <0>         0.0765
     16 O2          6.9729   -1.6153    1.3479 O.3       1 <0>        -0.5724
     17 C13         4.2041    0.2529   -1.2526 C.3       1 <0>         0.0696
     18 O3          4.6675    1.5313   -0.8134 O.3       1 <0>        -0.5573
     19 C14         1.1978   -1.0866    2.8571 C.3       1 <0>        -0.1082
     20 C15         0.3227   -0.8970    4.0971 C.3       1 <0>        -0.1521
     21 C16        -0.9812   -1.6667    3.9285 C.3       1 <0>         0.1184
     22 H3         -1.6209   -1.4764    4.7996 H         1 <0>         0.0656
     23 C17        -1.7386   -1.2538    2.6683 C.3       1 <0>        -0.0307
     24 C18        -2.7984   -2.3553    2.4149 C.3       1 <0>        -0.1365
     25 C19        -2.5016    0.0468    2.9257 C.3       1 <0>         0.0777
     26 O4         -3.2509   -0.0721    4.1366 O.3       1 <0>        -0.5711
     27 O5         -0.7049   -3.0710    3.8753 O.3       1 <0>        -0.5651
     28 C20         0.3329    1.0220    1.8970 C.3       1 <0>        -0.1520
     29 H4          1.7086    1.5033   -1.1960 H         1 <0>         0.0668
     30 H5          0.2784    1.3031   -2.2365 H         1 <0>         0.0480
     31 H6          0.0763    1.6809   -0.5088 H         1 <0>         0.0595
     32 H7         -1.2628   -0.4655   -1.8803 H         1 <0>         0.0653
     33 H8         -0.7316   -1.9825   -1.1301 H         1 <0>         0.0601
     34 H9         -1.6750    0.5145    0.3430 H         1 <0>         0.0688
     35 H10        -2.5676   -1.0005    0.1414 H         1 <0>         0.0651
     36 H11         2.1464   -2.5078    1.3095 H         1 <0>         0.0898
     37 H12         1.1856   -2.7704   -0.1836 H         1 <0>         0.0823
     38 H13         3.9135   -2.6850   -0.2738 H         1 <0>         0.0862
     39 H14         2.9443   -1.9215   -1.5766 H         1 <0>         0.0779
     40 H15         5.0459    0.2849    1.3810 H         1 <0>         0.0845
     41 H16         4.4055   -1.3203    1.8072 H         1 <0>         0.0723
     42 H17         5.6897   -2.2896   -0.1242 H         1 <0>         0.0445
     43 H18         6.4055   -0.6847   -0.4073 H         1 <0>         0.0474
     44 H19         7.7765   -2.0334    1.0095 H         1 <0>         0.3805
     45 H20         5.0298   -0.2977   -1.7034 H         1 <0>         0.0520
     46 H21         3.4118    0.3870   -1.9891 H         1 <0>         0.0499
     47 H22         5.0263    2.0840   -1.5211 H         1 <0>         0.3765
     48 H23         1.3460   -2.1544    2.7046 H         1 <0>         0.0714
     49 H24         2.1550   -0.5918    3.0029 H         1 <0>         0.0688
     50 H25         0.8615   -1.3068    4.9638 H         1 <0>         0.0593
     51 H26         0.1306    0.1506    4.2939 H         1 <0>         0.0749
     52 H27        -2.2981   -3.3093    2.2481 H         1 <0>         0.0646
     53 H28        -3.4537   -2.4355    3.2822 H         1 <0>         0.0597
     54 H29        -3.3888   -2.0961    1.5360 H         1 <0>         0.0476
     55 H30        -1.7942    0.8713    3.0156 H         1 <0>         0.0543
     56 H31        -3.1809    0.2399    2.0954 H         1 <0>         0.0510
     57 H32        -3.7607    0.7178    4.3628 H         1 <0>         0.3793
     58 H33        -0.2705   -3.4167    4.6670 H         1 <0>         0.3734
     59 H34        -0.1250    1.1773    2.8740 H         1 <0>         0.0561
     60 H35         1.3135    1.4975    1.8757 H         1 <0>         0.0702
     61 H36        -0.3002    1.4600    1.1253 H         1 <0>         0.0589
@<TRIPOS>BOND
     1    1    2 1
     2    1   29 1
     3    1   30 1
     4    1   31 1
     5    2    3 1
     6    2    9 1
     7    2    4 1
     8    4    5 1
     9    4   32 1
    10    4   33 1
    11    5    6 1
    12    5   34 1
    13    5   35 1
    14    6    7 1
    15    6   23 1
    16    6    8 1
    17    8    9 1
    18    8   19 1
    19    8   28 1
    20    9   13 1
    21    9   10 1
    22   10   11 1
    23   10   36 1
    24   10   37 1
    25   11   12 1
    26   11   38 1
    27   11   39 1
    28   12   13 1
    29   12   14 1
    30   12   17 1
    31   14   15 1
    32   14   40 1
    33   14   41 1
    34   15   16 1
    35   15   42 1
    36   15   43 1
    37   16   44 1
    38   17   18 1
    39   17   45 1
    40   17   46 1
    41   18   47 1
    42   19   20 1
    43   19   48 1
    44   19   49 1
    45   20   21 1
    46   20   50 1
    47   20   51 1
    48   21   22 1
    49   21   23 1
    50   21   27 1
    51   23   24 1
    52   23   25 1
    53   24   52 1
    54   24   53 1
    55   24   54 1
    56   25   26 1
    57   25   55 1
    58   25   56 1
    59   26   57 1
    60   27   58 1
    61   28   59 1
    62   28   60 1
    63   28   61 1
