@<TRIPOS>MOLECULE
ZINC12194825
   70    72     0     0     0
SMALL
USER_CHARGES
(3R)-1-(2-dimethylaminoethyl)-3-[2-[4-[(1S)-1-hydroxypropyl]-1-piperidyl]-2-oxo-ethyl]-3-(o-tolyl)pyrrolidine-2,5-dione
@<TRIPOS>ATOM
      1 C1         -0.8769   -0.6492   -2.8772 C.3       1 <0>        -0.1519
      2 C2          0.0827   -1.0208   -1.7449 C.3       1 <0>        -0.1587
      3 C3         -0.4048   -0.3942   -0.4370 C.3       1 <0>         0.1107
      4 H1         -1.4351   -0.6974   -0.2506 H         1 <0>         0.0975
      5 C4          0.4824   -0.8665    0.7166 C.3       1 <0>        -0.1203
      6 C5          0.4121   -2.3916    0.8224 C.3       1 <0>        -0.1334
      7 C6          1.3282   -2.8636    1.9559 C.3       1 <0>         0.1016
      8 N1          0.9583   -2.1554    3.1889 N.am      1 <0>        -0.6007
      9 C7          0.9060   -0.6872    3.1718 C.3       1 <0>         0.1106
     10 C8         -0.0054   -0.2396    2.0247 C.3       1 <0>        -0.1249
     11 C9          0.6719   -2.8396    4.3142 C.2       1 <0>         0.5156
     12 O1          0.3674   -2.2434    5.3255 O.2       1 <0>        -0.5528
     13 C10         0.7299   -4.3455    4.3158 C.3       1 <0>        -0.1394
     14 C11         0.3635   -4.8685    5.7062 C.3       1 <0>        -0.0249
     15 C12        -1.0541   -4.4084    6.1030 C.3       1 <0>        -0.1439
     16 C13        -0.8212   -3.5695    7.3407 C.2       1 <0>         0.5549
     17 O2         -1.6841   -3.0094    7.9819 O.2       1 <0>        -0.4764
     18 N2          0.4888   -3.5444    7.6156 N.am      1 <0>        -0.5547
     19 C14         1.2483   -4.2413    6.7613 C.2       1 <0>         0.5589
     20 O3          2.4539   -4.3526    6.8235 O.2       1 <0>        -0.4720
     21 C15         1.0455   -2.8140    8.7571 C.3       1 <0>         0.0773
     22 C16         1.0881   -3.7335    9.9792 C.3       1 <0>        -0.0253
     23 C17         0.7528   -1.9110   11.5376 C.3       1 <0>        -0.0491
     24 C18         1.9237   -3.9088   12.2450 C.3       1 <0>        -0.0415
     25 C19         0.4648   -6.3715    5.7494 C.ar      1 <0>        -0.0873
     26 C20         1.3199   -6.9811    6.6485 C.ar      1 <0>        -0.1105
     27 C21         1.4125   -8.3596    6.6884 C.ar      1 <0>        -0.1180
     28 C22         0.6503   -9.1288    5.8289 C.ar      1 <0>        -0.1021
     29 C23        -0.2050   -8.5193    4.9303 C.ar      1 <0>        -0.1106
     30 C24        -0.3014   -7.1406    4.8940 C.ar      1 <0>        -0.0654
     31 C25        -1.2382   -6.4763    3.9182 C.3       1 <0>        -0.1370
     32 O4         -0.3381    1.0298   -0.5371 O.3       1 <0>        -0.5569
     33 H2         -0.9103    0.4351   -2.9840 H         1 <0>         0.0614
     34 H3         -0.5296   -1.0956   -3.8089 H         1 <0>         0.0551
     35 H4         -1.8745   -1.0223   -2.6452 H         1 <0>         0.0539
     36 H5          1.0802   -0.6477   -1.9769 H         1 <0>         0.0655
     37 H6          0.1160   -2.1050   -1.6380 H         1 <0>         0.0737
     38 H7          1.5125   -0.5627    0.5303 H         1 <0>         0.0768
     39 H8         -0.6134   -2.6947    1.0334 H         1 <0>         0.0725
     40 H9          0.7375   -2.8370   -0.1177 H         1 <0>         0.0870
     41 H10         2.3652   -2.6415    1.7041 H         1 <0>         0.0774
     42 H11         1.2094   -3.9373    2.1015 H         1 <0>         0.0880
     43 H12         1.9086   -0.2876    3.0191 H         1 <0>         0.0697
     44 H13         0.5076   -0.3225    4.1186 H         1 <0>         0.0934
     45 H14         0.0229    0.8468    1.9402 H         1 <0>         0.0861
     46 H15        -1.0272   -0.5625    2.2240 H         1 <0>         0.0680
     47 H16         0.0246   -4.7371    3.5828 H         1 <0>         0.1275
     48 H17         1.7382   -4.6705    4.0595 H         1 <0>         0.1154
     49 H18        -1.4982   -3.8069    5.3099 H         1 <0>         0.1283
     50 H19        -1.6852   -5.2664    6.3343 H         1 <0>         0.1272
     51 H20         2.0553   -2.4807    8.5177 H         1 <0>         0.1129
     52 H21         0.4194   -1.9488    8.9750 H         1 <0>         0.1156
     53 H22         0.0783   -4.0668   10.2186 H         1 <0>         0.1377
     54 H23         1.7142   -4.5987    9.7612 H         1 <0>         0.1337
     55 H24        -0.2146   -2.3233   11.8246 H         1 <0>         0.1267
     56 H25         1.1899   -1.3853   12.3865 H         1 <0>         0.1274
     57 H26         0.6200   -1.2156   10.7088 H         1 <0>         0.1224
     58 H27         2.6421   -4.6658   11.9304 H         1 <0>         0.1224
     59 H28         2.3360   -3.3408   13.0789 H         1 <0>         0.1268
     60 H29         0.9987   -4.3934   12.5575 H         1 <0>         0.1243
     61 H30         1.9154   -6.3803    7.3200 H         1 <0>         0.1206
     62 H31         2.0805   -8.8358    7.3908 H         1 <0>         0.1264
     63 H32         0.7229  -10.2059    5.8598 H         1 <0>         0.1295
     64 H33        -0.8006   -9.1202    4.2591 H         1 <0>         0.1315
     65 H34        -0.7089   -6.2732    2.9872 H         1 <0>         0.0793
     66 H35        -2.0832   -7.1355    3.7194 H         1 <0>         0.0788
     67 H36        -1.6000   -5.5396    4.3422 H         1 <0>         0.0730
     68 H37         0.5514    1.3711   -0.7029 H         1 <0>         0.3744
     69 N3          1.6712   -2.9894   11.1155 N.4       1 <0>        -0.3932
     70 H38         2.5615   -2.5725   10.8194 H         1 <0>         0.4331
@<TRIPOS>BOND
     1    1    2 1
     2    1   33 1
     3    1   34 1
     4    1   35 1
     5    2    3 1
     6    2   36 1
     7    2   37 1
     8    3    4 1
     9    3    5 1
    10    3   32 1
    11    5   10 1
    12    5    6 1
    13    5   38 1
    14    6    7 1
    15    6   39 1
    16    6   40 1
    17    7    8 1
    18    7   41 1
    19    7   42 1
    20    8    9 1
    21    8   11 am
    22    9   10 1
    23    9   43 1
    24    9   44 1
    25   10   45 1
    26   10   46 1
    27   11   12 2
    28   11   13 1
    29   13   14 1
    30   13   47 1
    31   13   48 1
    32   14   19 1
    33   14   15 1
    34   14   25 1
    35   15   16 1
    36   15   49 1
    37   15   50 1
    38   16   17 2
    39   16   18 am
    40   18   19 am
    41   18   21 1
    42   19   20 2
    43   21   22 1
    44   21   51 1
    45   21   52 1
    46   22   53 1
    47   22   54 1
    48   22   69 1
    49   23   55 1
    50   23   56 1
    51   23   57 1
    52   23   69 1
    53   24   58 1
    54   24   59 1
    55   24   60 1
    56   24   69 1
    57   25   30 ar
    58   25   26 ar
    59   26   27 ar
    60   26   61 1
    61   27   28 ar
    62   27   62 1
    63   28   29 ar
    64   28   63 1
    65   29   30 ar
    66   29   64 1
    67   30   31 1
    68   31   65 1
    69   31   66 1
    70   31   67 1
    71   32   68 1
    72   69   70 1
