@<TRIPOS>MOLECULE
ZINC24904231
   61    65     0     0     0
SMALL
USER_CHARGES
3-[[[4-[[8-(3-thienyl)-2-(trifluoromethyl)-1,6-naphthyridin-5-yl]amino]cyclohexyl]amino]methyl]benzonitrile
@<TRIPOS>ATOM
      1 C1          1.1714    1.7832    0.0005 C.ar      1 <0>        -0.1099
      2 C2          1.1545    3.1669    0.0081 C.ar      1 <0>        -0.0674
      3 C3         -0.0483    3.8503    0.0233 C.ar      1 <0>        -0.1607
      4 C4         -1.2401    3.1552    0.0305 C.ar      1 <0>        -0.0504
      5 C5         -1.2304    1.7592    0.0174 C.ar      1 <0>        -0.0085
      6 C6         -0.0126    1.0758    0.0080 C.ar      1 <0>        -0.0393
      7 C7         -2.4636    1.0313    0.0193 C.1       1 <0>         0.2277
      8 N1         -3.4419    0.4539    0.0207 N.1       1 <0>        -0.3763
      9 C8         -0.0567    5.3572    0.0315 C.3       1 <0>         0.0507
     10 N2         -0.0727    5.8543   -1.3507 N.4       1 <0>        -0.5407
     11 C9         -0.0814    7.3230   -1.3819 C.3       1 <0>         0.0309
     12 C10        -1.5201    7.8274   -1.2533 C.3       1 <0>        -0.1369
     13 C11        -1.5290    9.3570   -1.2858 C.3       1 <0>        -0.1287
     14 C12        -0.9348    9.8425   -2.6094 C.3       1 <0>         0.1538
     15 C13         0.5040    9.3381   -2.7380 C.3       1 <0>        -0.1273
     16 C14         0.5129    7.8085   -2.7055 C.3       1 <0>        -0.1349
     17 N3         -0.9433   11.3072   -2.6405 N.pl3     1 <0>        -0.7214
     18 C15        -2.0779   11.9842   -3.0544 C.ar      1 <0>         0.4480
     19 C16        -2.0871   13.3961   -3.0785 C.ar      1 <0>        -0.1731
     20 C17        -0.9714   14.1543   -2.6925 C.ar      1 <0>        -0.0218
     21 C18        -1.0699   15.5179   -2.7477 C.ar      1 <0>        -0.1529
     22 C19        -2.2522   16.1127   -3.1774 C.ar      1 <0>         0.1006
     23 N4         -3.2894   15.3973   -3.5489 N.ar      1 <0>        -0.4220
     24 C20        -3.2570   14.0669   -3.5115 C.ar      1 <0>         0.2015
     25 C21        -4.3732   13.2781   -3.8909 C.ar      1 <0>        -0.1005
     26 C22        -4.2647   11.9017   -3.8257 C.ar      1 <0>         0.1629
     27 N5         -3.1512   11.3092   -3.4208 N.ar      1 <0>        -0.5468
     28 C23        -5.6303   13.9169   -4.3484 C.2       1 <0>        -0.0813
     29 C24        -6.2421   13.5169   -5.5330 C.2       1 <0>        -0.1481
     30 C25        -7.3909   14.1196   -5.9142 C.2       1 <0>        -0.1726
     31 S1         -7.6507   15.3027   -4.6035 S.3       1 <0>         0.0545
     32 C26        -6.2125   14.9166   -3.6194 C.2       1 <0>        -0.1323
     33 C27        -2.3404   17.6162   -3.2310 C.3       1 <0>         0.5194
     34 F1         -1.9253   18.0631   -4.4901 F         1 <0>        -0.1648
     35 F2         -3.6629   18.0141   -3.0077 F         1 <0>        -0.1590
     36 F3         -1.5148   18.1672   -2.2451 F         1 <0>        -0.1666
     37 H1          2.1139    1.2560   -0.0111 H         1 <0>         0.1481
     38 H2          2.0845    3.7159    0.0025 H         1 <0>         0.1400
     39 H3         -2.1784    3.6899    0.0420 H         1 <0>         0.1416
     40 H4          0.0021   -0.0041    0.0020 H         1 <0>         0.1463
     41 H5         -0.9519    5.7160    0.5606 H         1 <0>         0.1370
     42 H6          0.8443    5.7261    0.5434 H         1 <0>         0.1389
     43 H7          0.8225    5.4956   -1.8797 H         1 <0>         0.4485
     44 H8          0.5271    7.6716   -0.5345 H         1 <0>         0.1350
     45 H9         -2.1208    7.4394   -2.0891 H         1 <0>         0.0926
     46 H10        -1.9474    7.4783   -0.3017 H         1 <0>         0.0886
     47 H11        -2.5634    9.7197   -1.1933 H         1 <0>         0.0909
     48 H12        -0.9283    9.7450   -0.4500 H         1 <0>         0.0743
     49 H13        -1.5440    9.4965   -3.4574 H         1 <0>         0.1009
     50 H14         0.9312    9.6872   -3.6896 H         1 <0>         0.0923
     51 H15         1.1047    9.7262   -1.9022 H         1 <0>         0.0810
     52 H16         1.5473    7.4458   -2.7979 H         1 <0>         0.0941
     53 H17        -0.0877    7.4205   -3.5414 H         1 <0>         0.0931
     54 H18        -0.0483   11.8690   -2.3350 H         1 <0>         0.4302
     55 H19        -0.0615   13.6757   -2.3618 H         1 <0>         0.1484
     56 H20        -0.2305   16.1324   -2.4575 H         1 <0>         0.1568
     57 H21        -5.1097   11.2934   -4.1127 H         1 <0>         0.1663
     58 H22        -5.8080   12.7335   -6.1366 H         1 <0>         0.1324
     59 H23        -7.9945   13.9355   -6.7906 H         1 <0>         0.1877
     60 H24        -5.8868   15.3579   -2.6890 H         1 <0>         0.1811
     61 H25        -0.9736    5.4853   -1.8627 H         1 <0>         0.4478
@<TRIPOS>BOND
     1    1    6 ar
     2    1    2 ar
     3    1   37 1
     4    2    3 ar
     5    2   38 1
     6    3    4 ar
     7    3    9 1
     8    4    5 ar
     9    4   39 1
    10    5    6 ar
    11    5    7 1
    12    6   40 1
    13    7    8 3
    14    9   10 1
    15    9   41 1
    16    9   42 1
    17   10   11 1
    18   10   43 1
    19   10   61 1
    20   11   16 1
    21   11   12 1
    22   11   44 1
    23   12   13 1
    24   12   45 1
    25   12   46 1
    26   13   14 1
    27   13   47 1
    28   13   48 1
    29   14   15 1
    30   14   17 1
    31   14   49 1
    32   15   16 1
    33   15   50 1
    34   15   51 1
    35   16   52 1
    36   16   53 1
    37   17   18 1
    38   17   54 1
    39   18   27 ar
    40   18   19 ar
    41   19   24 ar
    42   19   20 ar
    43   20   21 ar
    44   20   55 1
    45   21   22 ar
    46   21   56 1
    47   22   23 ar
    48   22   33 1
    49   23   24 ar
    50   24   25 ar
    51   25   26 ar
    52   25   28 1
    53   26   27 ar
    54   26   57 1
    55   28   32 2
    56   28   29 1
    57   29   30 2
    58   29   58 1
    59   30   31 1
    60   30   59 1
    61   31   32 1
    62   32   60 1
    63   33   34 1
    64   33   35 1
    65   33   36 1
