@<TRIPOS>MOLECULE
ZINC08868971
   62    65     0     0     0
SMALL
USER_CHARGES
4-ethyl-8-[1-(4-methoxyphenyl)sulfonylpyrrolidin-2-yl]carbonylamino-7-thia-4-azabicyclo[4.3.0]nona-8,10-diene-9-carboxamide
@<TRIPOS>ATOM
      1 C1          4.2066    5.3509    1.2443 C.3       1 <0>        -0.1911
      2 C2          4.6529    4.3237    0.2019 C.3       1 <0>        -0.0046
      3 C3          4.4031    2.0112   -0.4725 C.3       1 <0>         0.0025
      4 C4          3.8057    0.6708   -0.0349 C.3       1 <0>        -0.0898
      5 C5          2.2880    0.8107   -0.0163 C.2       1 <0>        -0.0400
      6 C6          1.7199    2.0381   -0.0034 C.2       1 <0>        -0.3239
      7 S1         -0.0214    1.7289    0.0115 S.3       1 <0>         0.3369
      8 C7          0.0021   -0.0041    0.0020 C.2       1 <0>         0.1083
      9 C8          1.3582   -0.3027   -0.0129 C.2       1 <0>        -0.2431
     10 C9          1.8320   -1.6902   -0.0244 C.2       1 <0>         0.5775
     11 O1          2.0186   -2.2608   -1.0831 O.2       1 <0>        -0.5220
     12 N1          2.0610   -2.3337    1.1375 N.am      1 <0>        -0.8453
     13 N2         -1.0728   -0.8801    0.0079 N.am      1 <0>        -0.6184
     14 C10        -2.3324   -0.4011    0.0234 C.2       1 <0>         0.4936
     15 O2         -2.5259    0.7962    0.0322 O.2       1 <0>        -0.4561
     16 C11        -3.5006   -1.3532    0.0298 C.3       1 <0>         0.1425
     17 H1         -3.4661   -1.9879   -0.8557 H         1 <0>         0.1158
     18 C12        -3.4601   -2.2250    1.3025 C.3       1 <0>        -0.1232
     19 C13        -4.4408   -1.4855    2.2569 C.3       1 <0>        -0.1288
     20 C14        -5.5146   -0.9739    1.2646 C.3       1 <0>         0.1097
     21 N3         -4.7614   -0.5974    0.0544 N.pl3     1 <0>        -0.9935
     22 S2         -5.2536    0.4962   -1.0875 S.o2      1 <0>         2.7099
     23 O3         -6.1754    1.3666   -0.4455 O.2       1 <0>        -0.9437
     24 O4         -4.0777    0.9708   -1.7288 O.2       1 <0>        -0.9360
     25 C15        -6.1657   -0.3950   -2.3034 C.ar      1 <0>        -0.7248
     26 C16        -5.5147   -0.9296   -3.3999 C.ar      1 <0>         0.0193
     27 C17        -6.2266   -1.6336   -4.3517 C.ar      1 <0>        -0.2293
     28 C18        -7.5975   -1.7942   -4.2126 C.ar      1 <0>         0.1887
     29 C19        -8.2492   -1.2520   -3.1144 C.ar      1 <0>        -0.1693
     30 C20        -7.5319   -0.5537   -2.1625 C.ar      1 <0>         0.0195
     31 O5         -8.3009   -2.4820   -5.1502 O.3       1 <0>        -0.3075
     32 C21        -7.5643   -3.0124   -6.2540 C.3       1 <0>         0.0210
     33 C22         2.4396    3.3503   -0.0006 C.3       1 <0>         0.1074
     34 H2          3.1531    5.5869    1.0940 H         1 <0>         0.0810
     35 H3          4.3476    4.9392    2.2437 H         1 <0>         0.0807
     36 H4          4.8010    6.2583    1.1380 H         1 <0>         0.1074
     37 H5          5.7064    4.0877    0.3523 H         1 <0>         0.1317
     38 H6          4.5119    4.7355   -0.7974 H         1 <0>         0.1327
     39 H7          5.4860    1.9810   -0.3518 H         1 <0>         0.1372
     40 H8          4.1630    2.1890   -1.5208 H         1 <0>         0.1347
     41 H9          4.1639    0.4164    0.9626 H         1 <0>         0.1054
     42 H10         4.0947   -0.1086   -0.7400 H         1 <0>         0.1238
     43 H11         1.9123   -1.8789    1.9813 H         1 <0>         0.4040
     44 H12         2.3745   -3.2516    1.1299 H         1 <0>         0.4095
     45 H13        -0.9180   -1.8376    0.0009 H         1 <0>         0.4259
     46 H14        -3.8140   -3.2339    1.0902 H         1 <0>         0.1022
     47 H15        -2.4544   -2.2484    1.7221 H         1 <0>         0.0850
     48 H16        -3.9455   -0.6546    2.7593 H         1 <0>         0.0800
     49 H17        -4.8749   -2.1746    2.9813 H         1 <0>         0.0973
     50 H18        -6.0290   -0.1057    1.6766 H         1 <0>         0.0947
     51 H19        -6.2282   -1.7656    1.0363 H         1 <0>         0.0802
     52 H20        -4.4481   -0.8005   -3.5100 H         1 <0>         0.1390
     53 H21        -5.7170   -2.0548   -5.2058 H         1 <0>         0.1403
     54 H22        -9.3164   -1.3754   -3.0041 H         1 <0>         0.1454
     55 H23        -8.0388   -0.1310   -1.3076 H         1 <0>         0.1479
     56 H24        -6.8091   -3.7071   -5.8865 H         1 <0>         0.0613
     57 H25        -8.2439   -3.5366   -6.9259 H         1 <0>         0.1092
     58 H26        -7.0783   -2.1981   -6.7913 H         1 <0>         0.0619
     59 H27         1.9916    4.0138    0.7391 H         1 <0>         0.1409
     60 H28         2.3781    3.8063   -0.9887 H         1 <0>         0.1438
     61 N4          3.8522    3.0920    0.3708 N.4       1 <0>        -0.3950
     62 H29         3.8913    2.8010    1.3547 H         1 <0>         0.4293
@<TRIPOS>BOND
     1    1    2 1
     2    1   34 1
     3    1   35 1
     4    1   36 1
     5    2   37 1
     6    2   38 1
     7    2   61 1
     8    3    4 1
     9    3   39 1
    10    3   40 1
    11    3   61 1
    12    4    5 1
    13    4   41 1
    14    4   42 1
    15    5    9 1
    16    5    6 2
    17    6    7 1
    18    6   33 1
    19    7    8 1
    20    8    9 2
    21    8   13 1
    22    9   10 1
    23   10   11 2
    24   10   12 am
    25   12   43 1
    26   12   44 1
    27   13   14 am
    28   13   45 1
    29   14   15 2
    30   14   16 1
    31   16   17 1
    32   16   21 1
    33   16   18 1
    34   18   19 1
    35   18   46 1
    36   18   47 1
    37   19   20 1
    38   19   48 1
    39   19   49 1
    40   20   21 1
    41   20   50 1
    42   20   51 1
    43   21   22 1
    44   22   23 2
    45   22   24 2
    46   22   25 1
    47   25   30 ar
    48   25   26 ar
    49   26   27 ar
    50   26   52 1
    51   27   28 ar
    52   27   53 1
    53   28   29 ar
    54   28   31 1
    55   29   30 ar
    56   29   54 1
    57   30   55 1
    58   31   32 1
    59   32   56 1
    60   32   57 1
    61   32   58 1
    62   33   59 1
    63   33   60 1
    64   33   61 1
    65   61   62 1
