@<TRIPOS>MOLECULE
ZINC10650091
   52    55     0     0     0
SMALL
USER_CHARGES
[2-chloro-6-(trifluoromethyl)phenyl]carbamoylmethyl 1-(4-fluorophenyl)-4,5,6,7-tetrahydroindazole-3-carboxylate
@<TRIPOS>ATOM
      1 C1         -2.2365    9.6944   -9.4633 C.ar      1 <0>        -0.0988
      2 C2         -2.6937    8.5517  -10.0940 C.ar      1 <0>        -0.0616
      3 C3         -2.6109    7.3290   -9.4571 C.ar      1 <0>        -0.1676
      4 C4         -2.0784    7.2488   -8.1773 C.ar      1 <0>         0.1977
      5 C5         -1.6202    8.3986   -7.5456 C.ar      1 <0>        -0.0324
      6 C6         -1.7008    9.6183   -8.1909 C.ar      1 <0>        -0.0715
      7 Cl1        -0.9481    8.3033   -5.9478 Cl        1 <0>        -0.0392
      8 N1         -1.9980    6.0118   -7.5271 N.am      1 <0>        -0.6950
      9 C7         -2.9567    5.6463   -6.6531 C.2       1 <0>         0.5248
     10 O1         -3.9289    6.3526   -6.4890 O.2       1 <0>        -0.4797
     11 C8         -2.8206    4.3600   -5.8798 C.3       1 <0>         0.0524
     12 O2         -3.9727    4.1928   -5.0120 O.3       1 <0>        -0.3160
     13 C9         -4.0062    3.0844   -4.2467 C.2       1 <0>         0.5622
     14 O3         -3.0978    2.2796   -4.3029 O.2       1 <0>        -0.4896
     15 C10        -5.1461    2.8480   -3.3404 C.2       1 <0>         0.0078
     16 C11        -5.3229    1.7462   -2.4856 C.2       1 <0>        -0.1285
     17 C12        -6.5031    1.9516   -1.8511 C.2       1 <0>         0.0173
     18 N2         -7.0017    3.1221   -2.3063 N.pl3     1 <0>        -0.2219
     19 N3         -6.1987    3.6325   -3.1753 N.2       1 <0>        -0.2243
     20 C13        -8.2125    3.6956   -1.8947 C.ar      1 <0>         0.1109
     21 C14        -9.0642    4.2677   -2.8303 C.ar      1 <0>        -0.0639
     22 C15       -10.2588    4.8283   -2.4234 C.ar      1 <0>        -0.1366
     23 C16       -10.6031    4.8288   -1.0819 C.ar      1 <0>         0.1153
     24 C17        -9.7525    4.2634   -0.1466 C.ar      1 <0>        -0.1360
     25 C18        -8.5593    3.6975   -0.5502 C.ar      1 <0>        -0.0807
     26 F1        -11.7700    5.3820   -0.6851 F         1 <0>        -0.1293
     27 C19        -7.0894    1.0026   -0.8380 C.3       1 <0>        -0.0499
     28 C20        -6.3773   -0.3494   -0.9750 C.3       1 <0>        -0.1159
     29 C21        -4.8613   -0.1357   -0.9655 C.3       1 <0>        -0.1222
     30 C22        -4.4325    0.5540   -2.2677 C.3       1 <0>        -0.0455
     31 C23        -3.1033    6.0837  -10.1484 C.3       1 <0>         0.5127
     32 F2         -3.5907    6.4162  -11.4169 F         1 <0>        -0.1721
     33 F3         -2.0483    5.1741  -10.2780 F         1 <0>        -0.1741
     34 F4         -4.1279    5.5047   -9.3921 F         1 <0>        -0.1671
     35 H1         -2.2985   10.6485   -9.9655 H         1 <0>         0.1517
     36 H2         -3.1115    8.6149  -11.0879 H         1 <0>         0.1520
     37 H3         -1.3454   10.5126   -7.7008 H         1 <0>         0.1507
     38 H4         -1.2524    5.4176   -7.7056 H         1 <0>         0.4195
     39 H5         -1.9132    4.3929   -5.2768 H         1 <0>         0.1110
     40 H6         -2.7648    3.5223   -6.5750 H         1 <0>         0.1099
     41 H7         -8.7942    4.2711   -3.8760 H         1 <0>         0.1479
     42 H8        -10.9233    5.2701   -3.1512 H         1 <0>         0.1510
     43 H9        -10.0224    4.2654    0.8991 H         1 <0>         0.1513
     44 H10        -7.8960    3.2569    0.1795 H         1 <0>         0.1450
     45 H11        -6.9376    1.3978    0.1664 H         1 <0>         0.0864
     46 H12        -8.1557    0.8773   -1.0261 H         1 <0>         0.0839
     47 H13        -6.6713   -0.8211   -1.9126 H         1 <0>         0.0707
     48 H14        -6.6583   -0.9933   -0.1417 H         1 <0>         0.0780
     49 H15        -4.3592   -1.0996   -0.8826 H         1 <0>         0.0751
     50 H16        -4.5881    0.4903   -0.1160 H         1 <0>         0.0669
     51 H17        -3.3955    0.8797   -2.1868 H         1 <0>         0.0865
     52 H18        -4.5357   -0.1398   -3.1021 H         1 <0>         0.0812
@<TRIPOS>BOND
     1    1    6 ar
     2    1    2 ar
     3    1   35 1
     4    2    3 ar
     5    2   36 1
     6    3    4 ar
     7    3   31 1
     8    4    5 ar
     9    4    8 1
    10    5    6 ar
    11    5    7 1
    12    6   37 1
    13    8    9 am
    14    8   38 1
    15    9   10 2
    16    9   11 1
    17   11   12 1
    18   11   39 1
    19   11   40 1
    20   12   13 1
    21   13   14 2
    22   13   15 1
    23   15   19 2
    24   15   16 1
    25   16   30 1
    26   16   17 2
    27   17   18 1
    28   17   27 1
    29   18   19 1
    30   18   20 1
    31   20   25 ar
    32   20   21 ar
    33   21   22 ar
    34   21   41 1
    35   22   23 ar
    36   22   42 1
    37   23   24 ar
    38   23   26 1
    39   24   25 ar
    40   24   43 1
    41   25   44 1
    42   27   28 1
    43   27   45 1
    44   27   46 1
    45   28   29 1
    46   28   47 1
    47   28   48 1
    48   29   30 1
    49   29   49 1
    50   29   50 1
    51   30   51 1
    52   30   52 1
    53   31   32 1
    54   31   33 1
    55   31   34 1
