@<TRIPOS>MOLECULE
ZINC39691027
   58    61     0     0     0
SMALL
USER_CHARGES

@<TRIPOS>ATOM
      1 C1          0.7064   -3.5308   -0.3116 C.3       1 <0>        -0.1233
      2 C2         -0.7578   -3.5200   -0.6680 C.2       1 <0>        -0.1485
      3 C3         -1.2838   -4.5352   -1.3073 C.2       1 <0>        -0.1639
      4 C4         -1.6169   -2.3413   -0.2889 C.3       1 <0>         0.1527
      5 N1         -2.0965   -2.5085    1.0852 N.am      1 <0>        -0.7258
      6 C5         -2.8878   -1.5700    1.6416 C.2       1 <0>         0.5125
      7 O1         -3.2027   -0.5871    1.0048 O.2       1 <0>        -0.5124
      8 C6         -3.3812   -1.7420    3.0551 C.3       1 <0>        -0.1140
      9 H1         -2.6819   -2.3499    3.6291 H         1 <0>         0.1163
     10 C7         -3.5754   -0.3649    3.7285 C.3       1 <0>         0.1197
     11 N2         -5.0099   -0.0504    3.5307 N.am      1 <0>        -0.6005
     12 C8         -5.7021   -1.3466    3.7279 C.3       1 <0>         0.1036
     13 C9         -4.7784   -2.3846    3.0601 C.3       1 <0>        -0.0771
     14 C10        -4.7629   -3.6769    3.8708 C.3       1 <0>        -0.1331
     15 C11        -6.1479   -4.3276    3.8125 C.3       1 <0>        -0.0099
     16 N3         -6.5009   -4.6070    2.4153 N.4       1 <0>        -0.5042
     17 C12        -6.6049   -3.3501    1.6642 C.3       1 <0>        -0.0095
     18 C13        -5.2392   -2.6582    1.6316 C.3       1 <0>        -0.1449
     19 C14        -5.5610    1.1442    3.2381 C.2       1 <0>         0.5943
     20 O2         -4.8492    2.1015    3.0077 O.2       1 <0>        -0.5031
     21 C15        -7.0360    1.2902    3.1973 C.ar      1 <0>         0.1242
     22 C16        -7.5928    2.5073    2.7770 C.ar      1 <0>        -0.1267
     23 C17        -8.9492    2.6544    2.7345 C.ar      1 <0>        -0.0488
     24 C18        -9.7500    1.5629    3.1199 C.ar      1 <0>        -0.0855
     25 C19       -11.1517    1.6441    3.1001 C.ar      1 <0>        -0.0909
     26 C20       -11.8941    0.5679    3.4793 C.ar      1 <0>        -0.1073
     27 C21       -11.2820   -0.6164    3.8880 C.ar      1 <0>        -0.0907
     28 C22        -9.9274   -0.7320    3.9200 C.ar      1 <0>        -0.1017
     29 C23        -9.1240    0.3588    3.5353 C.ar      1 <0>         0.1204
     30 N4         -7.7943    0.2711    3.5519 N.ar      1 <0>        -0.4550
     31 H2          1.1594   -4.4573   -0.6645 H         1 <0>         0.0676
     32 H3          1.2014   -2.6818   -0.7831 H         1 <0>         0.0718
     33 H4          0.8175   -3.4612    0.7704 H         1 <0>         0.0664
     34 H5         -2.3331   -4.5275   -1.5627 H         1 <0>         0.0973
     35 H6         -0.6681   -5.3799   -1.5790 H         1 <0>         0.1069
     36 H7         -1.0295   -1.4259   -0.3599 H         1 <0>         0.0786
     37 H8         -2.4687   -2.2798   -0.9662 H         1 <0>         0.0740
     38 H9         -1.8447   -3.2946    1.5945 H         1 <0>         0.3999
     39 H10        -3.3427   -0.4256    4.7916 H         1 <0>         0.0900
     40 H11        -2.9514    0.3862    3.2442 H         1 <0>         0.1012
     41 H12        -5.8096   -1.5626    4.7909 H         1 <0>         0.0834
     42 H13        -6.6770   -1.3353    3.2406 H         1 <0>         0.1140
     43 H14        -4.0224   -4.3594    3.4535 H         1 <0>         0.0962
     44 H15        -4.5093   -3.4534    4.9070 H         1 <0>         0.1219
     45 H16        -6.1352   -5.2598    4.3772 H         1 <0>         0.1396
     46 H17        -6.8852   -3.6513    4.2450 H         1 <0>         0.1340
     47 H18        -5.7883   -5.1878    1.9995 H         1 <0>         0.4274
     48 H19        -6.9291   -3.5618    0.6453 H         1 <0>         0.1366
     49 H20        -7.3313   -2.6971    2.1479 H         1 <0>         0.1345
     50 H21        -5.3214   -1.7164    1.0891 H         1 <0>         0.1218
     51 H22        -4.5160   -3.3038    1.1334 H         1 <0>         0.0938
     52 H23        -6.9500    3.3257    2.4882 H         1 <0>         0.1539
     53 H24        -9.3961    3.5839    2.4140 H         1 <0>         0.1520
     54 H25       -11.6382    2.5557    2.7860 H         1 <0>         0.1381
     55 H26       -12.9720    0.6324    3.4638 H         1 <0>         0.1349
     56 H27       -11.8938   -1.4556    4.1844 H         1 <0>         0.1343
     57 H28        -9.4695   -1.6567    4.2389 H         1 <0>         0.1301
     58 H29        -7.3860   -5.0904    2.3837 H         1 <0>         0.4331
@<TRIPOS>BOND
     1    1    2 1
     2    1   31 1
     3    1   32 1
     4    1   33 1
     5    2    3 2
     6    2    4 1
     7    3   34 1
     8    3   35 1
     9    4    5 1
    10    4   36 1
    11    4   37 1
    12    5    6 am
    13    5   38 1
    14    6    7 2
    15    6    8 1
    16    8    9 1
    17    8   13 1
    18    8   10 1
    19   10   11 1
    20   10   39 1
    21   10   40 1
    22   11   12 1
    23   11   19 am
    24   12   13 1
    25   12   41 1
    26   12   42 1
    27   13   18 1
    28   13   14 1
    29   14   15 1
    30   14   43 1
    31   14   44 1
    32   15   16 1
    33   15   45 1
    34   15   46 1
    35   16   17 1
    36   16   47 1
    37   16   58 1
    38   17   18 1
    39   17   48 1
    40   17   49 1
    41   18   50 1
    42   18   51 1
    43   19   20 2
    44   19   21 1
    45   21   30 ar
    46   21   22 ar
    47   22   23 ar
    48   22   52 1
    49   23   24 ar
    50   23   53 1
    51   24   29 ar
    52   24   25 ar
    53   25   26 ar
    54   25   54 1
    55   26   27 ar
    56   26   55 1
    57   27   28 ar
    58   27   56 1
    59   28   29 ar
    60   28   57 1
    61   29   30 ar
