@<TRIPOS>MOLECULE
ZINC14648574
   59    60     0     0     0
SMALL
USER_CHARGES
methyl 2-[(2R)-1-[(5-bromo-2-hexoxy-benzoyl)carbamothioyl]-3-oxo-piperazin-2-yl]acetate
@<TRIPOS>ATOM
      1 C1          2.1803  -11.3342   -1.2803 C.3       1 <0>        -0.1547
      2 C2          1.5623  -10.9231    0.0577 C.3       1 <0>        -0.1251
      3 C3          1.1495   -9.4511   -0.0020 C.3       1 <0>        -0.1204
      4 C4          0.5316   -9.0400    1.3360 C.3       1 <0>        -0.1161
      5 C5          0.1188   -7.5680    1.2763 C.3       1 <0>        -0.1182
      6 C6         -0.4991   -7.1569    2.6142 C.3       1 <0>         0.0510
      7 O1         -0.8847   -5.7821    2.5585 O.3       1 <0>        -0.2724
      8 C7         -1.4534   -5.2562    3.6723 C.ar      1 <0>         0.2110
      9 C8         -1.6339   -6.0433    4.8000 C.ar      1 <0>        -0.2116
     10 C9         -2.2180   -5.5088    5.9310 C.ar      1 <0>        -0.0183
     11 C10        -2.6231   -4.1832    5.9513 C.ar      1 <0>        -0.1408
     12 C11        -2.4465   -3.3851    4.8412 C.ar      1 <0>        -0.0169
     13 C12        -1.8566   -3.9139    3.6900 C.ar      1 <0>        -0.1651
     14 C13        -1.6650   -3.0663    2.4987 C.2       1 <0>         0.5404
     15 O2         -1.1514   -3.5298    1.4992 O.2       1 <0>        -0.3841
     16 N1         -2.0592   -1.7776    2.5181 N.am      1 <0>        -0.6124
     17 C14        -1.8841   -1.0029    1.4292 C.2       1 <0>         0.5524
     18 S1         -1.0413   -1.6143    0.0703 S.2       1 <0>        -0.5178
     19 N2         -2.3724    0.2531    1.4103 N.pl3     1 <0>        -0.5735
     20 C15        -2.2392    1.1092    0.2194 C.3       1 <0>         0.0836
     21 C16        -1.4130    2.3378    0.6045 C.3       1 <0>         0.0934
     22 N3         -1.8878    2.9074    1.8581 N.am      1 <0>        -0.7088
     23 C17        -2.5894    2.2400    2.7753 C.2       1 <0>         0.5236
     24 O3         -2.8612    2.8000    3.8162 O.2       1 <0>        -0.5270
     25 C18        -3.0596    0.8246    2.5780 C.3       1 <0>         0.1268
     26 H1         -2.8268    0.2356    3.4651 H         1 <0>         0.1226
     27 C19        -4.5707    0.8153    2.3386 C.3       1 <0>        -0.1255
     28 C20        -5.0648   -0.6079    2.3024 C.2       1 <0>         0.4680
     29 O4         -4.2773   -1.5225    2.3613 O.2       1 <0>        -0.5094
     30 O5         -6.3800   -0.8596    2.2102 O.3       1 <0>        -0.3492
     31 C21        -6.7843   -2.2540    2.1864 C.3       1 <0>         0.0365
     32 Br1        -3.4209   -3.4664    7.5088 Br        1 <0>        -0.0394
     33 H2          1.4492  -11.1938   -2.0765 H         1 <0>         0.0541
     34 H3          3.0574  -10.7186   -1.4797 H         1 <0>         0.0542
     35 H4          2.4744  -12.3829   -1.2377 H         1 <0>         0.0537
     36 H5          2.2934  -11.0635    0.8539 H         1 <0>         0.0608
     37 H6          0.6852  -11.5387    0.2572 H         1 <0>         0.0606
     38 H7          0.4185   -9.3107   -0.7982 H         1 <0>         0.0643
     39 H8          2.0267   -8.8355   -0.2015 H         1 <0>         0.0646
     40 H9          1.2626   -9.1804    2.1322 H         1 <0>         0.0647
     41 H10        -0.3456   -9.6556    1.5354 H         1 <0>         0.0644
     42 H11        -0.6123   -7.4276    0.4800 H         1 <0>         0.0772
     43 H12         0.9960   -6.9524    1.0768 H         1 <0>         0.0779
     44 H13         0.2319   -7.2973    3.4105 H         1 <0>         0.0666
     45 H14        -1.3763   -7.7725    2.8137 H         1 <0>         0.0660
     46 H15        -1.3213   -7.0770    4.7918 H         1 <0>         0.1476
     47 H16        -2.3597   -6.1270    6.8051 H         1 <0>         0.1434
     48 H17        -2.7639   -2.3530    4.8611 H         1 <0>         0.1330
     49 H18        -2.4690   -1.4077    3.3157 H         1 <0>         0.4045
     50 H19        -3.2263    1.4217   -0.1212 H         1 <0>         0.0911
     51 H20        -1.7332    0.5598   -0.5745 H         1 <0>         0.1488
     52 H21        -1.4947    3.0865   -0.1835 H         1 <0>         0.1046
     53 H22        -0.3685    2.0466    0.7156 H         1 <0>         0.0829
     54 H23        -1.6788    3.8372    2.0387 H         1 <0>         0.4101
     55 H24        -4.7910    1.3007    1.3879 H         1 <0>         0.1248
     56 H25        -5.0696    1.3527    3.1451 H         1 <0>         0.1381
     57 H26        -6.3304   -2.7493    1.3281 H         1 <0>         0.0665
     58 H27        -6.4561   -2.7431    3.1036 H         1 <0>         0.0669
     59 H28        -7.8698   -2.3163    2.1098 H         1 <0>         0.1061
@<TRIPOS>BOND
     1    1    2 1
     2    1   33 1
     3    1   34 1
     4    1   35 1
     5    2    3 1
     6    2   36 1
     7    2   37 1
     8    3    4 1
     9    3   38 1
    10    3   39 1
    11    4    5 1
    12    4   40 1
    13    4   41 1
    14    5    6 1
    15    5   42 1
    16    5   43 1
    17    6    7 1
    18    6   44 1
    19    6   45 1
    20    7    8 1
    21    8   13 ar
    22    8    9 ar
    23    9   10 ar
    24    9   46 1
    25   10   11 ar
    26   10   47 1
    27   11   12 ar
    28   11   32 1
    29   12   13 ar
    30   12   48 1
    31   13   14 1
    32   14   15 2
    33   14   16 am
    34   16   17 1
    35   16   49 1
    36   17   18 2
    37   17   19 1
    38   19   25 1
    39   19   20 1
    40   20   21 1
    41   20   50 1
    42   20   51 1
    43   21   22 1
    44   21   52 1
    45   21   53 1
    46   22   23 am
    47   22   54 1
    48   23   24 2
    49   23   25 1
    50   25   26 1
    51   25   27 1
    52   27   28 1
    53   27   55 1
    54   27   56 1
    55   28   29 2
    56   28   30 1
    57   30   31 1
    58   31   57 1
    59   31   58 1
    60   31   59 1
