@<TRIPOS>MOLECULE
ZINC39605598
   59    61     0     0     0
SMALL
USER_CHARGES

@<TRIPOS>ATOM
      1 C1          0.3967    1.3633    0.1555 C.3       1 <0>        -0.1135
      2 C2          0.4869   -0.1401    0.2080 C.ar      1 <0>        -0.0682
      3 C3          0.5999   -0.8671   -0.9625 C.ar      1 <0>        -0.1202
      4 C4          0.6826   -2.2459   -0.9143 C.ar      1 <0>        -0.1102
      5 C5          0.6529   -2.8981    0.3045 C.ar      1 <0>        -0.1235
      6 C6          0.5408   -2.1712    1.4747 C.ar      1 <0>        -0.1031
      7 C7          0.4624   -0.7917    1.4267 C.ar      1 <0>        -0.0777
      8 C8          0.3455    0.0012    2.7029 C.3       1 <0>        -0.0967
      9 C9         -1.1071    0.2834    2.9878 C.2       1 <0>         0.5487
     10 O1         -1.9633   -0.1197    2.2292 O.2       1 <0>        -0.5195
     11 N1         -1.4549    0.9837    4.0855 N.am      1 <0>        -0.6219
     12 C10        -0.5600    1.5592    5.1169 C.3       1 <0>         0.1146
     13 C11        -1.1894    2.9280    5.4600 C.3       1 <0>        -0.1154
     14 H1         -1.0909    3.1346    6.5258 H         1 <0>         0.1177
     15 C12        -2.6720    2.7852    5.0771 C.3       1 <0>        -0.0724
     16 C13        -2.8189    1.3577    4.5305 C.3       1 <0>         0.1068
     17 C14        -3.5559    2.9752    6.3059 C.3       1 <0>        -0.1339
     18 C15        -5.0269    2.8865    5.8894 C.3       1 <0>        -0.0101
     19 N2         -5.3173    3.9203    4.8887 N.4       1 <0>        -0.5045
     20 C16        -4.5303    3.6761    3.6738 C.3       1 <0>        -0.0094
     21 C17        -3.0384    3.7982    3.9966 C.3       1 <0>        -0.1461
     22 C18        -0.5394    4.0217    4.6523 C.2       1 <0>         0.5161
     23 O2         -0.0940    3.7789    3.5507 O.2       1 <0>        -0.5167
     24 N3         -0.4530    5.2695    5.1542 N.am      1 <0>        -0.7284
     25 C19         0.1789    6.3327    4.3690 C.3       1 <0>         0.1190
     26 C20         0.1464    7.6406    5.1622 C.3       1 <0>        -0.1327
     27 C21         0.8064    8.7510    4.3421 C.3       1 <0>         0.0773
     28 O3          0.7760    9.9726    5.0830 O.3       1 <0>        -0.5752
     29 H2          1.3992    1.7891    0.1973 H         1 <0>         0.0714
     30 H3         -0.0882    1.6660   -0.7726 H         1 <0>         0.0659
     31 H4         -0.1862    1.7222    1.0038 H         1 <0>         0.0618
     32 H5          0.6231   -0.3577   -1.9145 H         1 <0>         0.1228
     33 H6          0.7701   -2.8139   -1.8287 H         1 <0>         0.1241
     34 H7          0.7168   -3.9756    0.3421 H         1 <0>         0.1238
     35 H8          0.5172   -2.6807    2.4267 H         1 <0>         0.1191
     36 H9          0.7729   -0.5708    3.5265 H         1 <0>         0.1017
     37 H10         0.8844    0.9427    2.5963 H         1 <0>         0.1095
     38 H11        -0.5366    0.9198    5.9994 H         1 <0>         0.0910
     39 H12         0.4449    1.6927    4.7165 H         1 <0>         0.0977
     40 H13        -3.5112    1.3428    3.6887 H         1 <0>         0.0872
     41 H14        -3.1604    0.6847    5.3170 H         1 <0>         0.0834
     42 H15        -3.3368    2.1959    7.0358 H         1 <0>         0.1222
     43 H16        -3.3609    3.9527    6.7468 H         1 <0>         0.0974
     44 H17        -5.2250    1.9030    5.4635 H         1 <0>         0.1330
     45 H18        -5.6612    3.0382    6.7627 H         1 <0>         0.1403
     46 H19        -6.3001    3.8995    4.6610 H         1 <0>         0.4344
     47 H20        -4.7402    2.6737    3.3006 H         1 <0>         0.1345
     48 H21        -4.7987    4.4098    2.9137 H         1 <0>         0.1381
     49 H22        -2.8248    4.8054    4.3545 H         1 <0>         0.0941
     50 H23        -2.4542    3.5993    3.0981 H         1 <0>         0.1234
     51 H24        -0.8092    5.4637    6.0353 H         1 <0>         0.4013
     52 H25         1.2133    6.0620    4.1569 H         1 <0>         0.0761
     53 H26        -0.3621    6.4627    3.4317 H         1 <0>         0.0723
     54 H27        -0.8879    7.9114    5.3743 H         1 <0>         0.0746
     55 H28         0.6875    7.5106    6.0995 H         1 <0>         0.0798
     56 H29         1.8407    8.4803    4.1301 H         1 <0>         0.0522
     57 H30         0.2654    8.8810    3.4049 H         1 <0>         0.0493
     58 H31         1.1785   10.7218    4.6228 H         1 <0>         0.3893
     59 H32        -5.0809    4.8263    5.2645 H         1 <0>         0.4274
@<TRIPOS>BOND
     1    1    2 1
     2    1   29 1
     3    1   30 1
     4    1   31 1
     5    2    7 ar
     6    2    3 ar
     7    3    4 ar
     8    3   32 1
     9    4    5 ar
    10    4   33 1
    11    5    6 ar
    12    5   34 1
    13    6    7 ar
    14    6   35 1
    15    7    8 1
    16    8    9 1
    17    8   36 1
    18    8   37 1
    19    9   10 2
    20    9   11 am
    21   11   16 1
    22   11   12 1
    23   12   13 1
    24   12   38 1
    25   12   39 1
    26   13   14 1
    27   13   15 1
    28   13   22 1
    29   15   21 1
    30   15   16 1
    31   15   17 1
    32   16   40 1
    33   16   41 1
    34   17   18 1
    35   17   42 1
    36   17   43 1
    37   18   19 1
    38   18   44 1
    39   18   45 1
    40   19   20 1
    41   19   46 1
    42   19   59 1
    43   20   21 1
    44   20   47 1
    45   20   48 1
    46   21   49 1
    47   21   50 1
    48   22   23 2
    49   22   24 am
    50   24   25 1
    51   24   51 1
    52   25   26 1
    53   25   52 1
    54   25   53 1
    55   26   27 1
    56   26   54 1
    57   26   55 1
    58   27   28 1
    59   27   56 1
    60   27   57 1
    61   28   58 1
