@<TRIPOS>MOLECULE
ZINC03557540
   39    40     0     0     0
SMALL
USER_CHARGES
(methylcarbamoylcarbamoyl-phenyl-methyl) 2-iodobenzoate
@<TRIPOS>ATOM
      1 C1         -2.4090    5.6311    0.0441 C.3       1 <0>         0.1021
      2 N1         -2.3891    4.1663    0.0360 N.am      1 <0>        -0.7394
      3 C2         -1.2129    3.5083    0.0269 C.2       1 <0>         0.6947
      4 O1         -0.1687    4.1303    0.0253 O.2       1 <0>        -0.5246
      5 N2         -1.1946    2.1607    0.0195 N.am      1 <0>        -0.6841
      6 C3         -0.0184    1.5028    0.0103 C.2       1 <0>         0.5290
      7 O2          1.0232    2.1232    0.0037 O.2       1 <0>        -0.4362
      8 C4          0.0021   -0.0041    0.0020 C.3       1 <0>         0.1254
      9 H1         -0.5743   -0.3799    0.8474 H         1 <0>         0.1271
     10 C5         -0.6038   -0.5076   -1.2827 C.ar      1 <0>        -0.1220
     11 C6          0.1766   -0.6174   -2.4184 C.ar      1 <0>        -0.0887
     12 C7         -0.3781   -1.0835   -3.5957 C.ar      1 <0>        -0.1167
     13 C8         -1.7155   -1.4306   -3.6397 C.ar      1 <0>        -0.1045
     14 C9         -2.4970   -1.3162   -2.5052 C.ar      1 <0>        -0.1163
     15 C10        -1.9412   -0.8543   -1.3268 C.ar      1 <0>        -0.1003
     16 O3          1.3733   -0.4701    0.1057 O.3       1 <0>        -0.3182
     17 C11         1.5722   -1.6548    0.7155 C.2       1 <0>         0.4992
     18 O4          0.6259   -2.2814    1.1486 O.2       1 <0>        -0.4643
     19 C12         2.9406   -2.1918    0.8573 C.ar      1 <0>        -0.1013
     20 C13         4.0303   -1.4769    0.3554 C.ar      1 <0>        -0.0549
     21 C14         5.3060   -1.9816    0.4959 C.ar      1 <0>        -0.1153
     22 C15         5.5072   -3.1991    1.1229 C.ar      1 <0>        -0.0770
     23 C16         4.4326   -3.9155    1.6178 C.ar      1 <0>        -0.0966
     24 C17         3.1506   -3.4199    1.4889 C.ar      1 <0>        -0.0570
     25 I1          1.5240   -4.5072    2.2380 I         1 <0>         0.0073
     26 H2         -3.4414    5.9805    0.0509 H         1 <0>         0.0822
     27 H3         -1.8959    5.9966    0.9336 H         1 <0>         0.0635
     28 H4         -1.9043    6.0062   -0.8463 H         1 <0>         0.0633
     29 H5         -3.2225    3.6699    0.0373 H         1 <0>         0.4012
     30 H6         -2.0280    1.6644    0.0207 H         1 <0>         0.4104
     31 H7          1.2204   -0.3424   -2.3851 H         1 <0>         0.1295
     32 H8          0.2325   -1.1732   -4.4820 H         1 <0>         0.1282
     33 H9         -2.1497   -1.7915   -4.5604 H         1 <0>         0.1273
     34 H10        -3.5418   -1.5874   -2.5396 H         1 <0>         0.1298
     35 H11        -2.5519   -0.7646   -0.4406 H         1 <0>         0.1277
     36 H12         3.8747   -0.5288   -0.1380 H         1 <0>         0.1480
     37 H13         6.1498   -1.4276    0.1119 H         1 <0>         0.1406
     38 H14         6.5080   -3.5917    1.2257 H         1 <0>         0.1401
     39 H15         4.5968   -4.8648    2.1059 H         1 <0>         0.1406
@<TRIPOS>BOND
     1    1    2 1
     2    1   26 1
     3    1   27 1
     4    1   28 1
     5    2    3 am
     6    2   29 1
     7    3    4 2
     8    3    5 am
     9    5    6 am
    10    5   30 1
    11    6    7 2
    12    6    8 1
    13    8    9 1
    14    8   10 1
    15    8   16 1
    16   10   15 ar
    17   10   11 ar
    18   11   12 ar
    19   11   31 1
    20   12   13 ar
    21   12   32 1
    22   13   14 ar
    23   13   33 1
    24   14   15 ar
    25   14   34 1
    26   15   35 1
    27   16   17 1
    28   17   18 2
    29   17   19 1
    30   19   24 ar
    31   19   20 ar
    32   20   21 ar
    33   20   36 1
    34   21   22 ar
    35   21   37 1
    36   22   23 ar
    37   22   38 1
    38   23   24 ar
    39   23   39 1
    40   24   25 1
