@<TRIPOS>MOLECULE
ZINC20917394
   52    54     0     0     0
SMALL
USER_CHARGES
2-[[4-amino-5-((N'E)-N'-(p-tolylmethylene)hydrazino)-1,2,4-triazol-3-yl]sulfanyl]-N-[2-(2-chlorophenyl)ethyl]acetamide
@<TRIPOS>ATOM
      1 C1         12.2981    4.3922   -0.0846 C.3       1 <0>        -0.1222
      2 C2         10.8106    4.6334   -0.0705 C.ar      1 <0>        -0.0689
      3 C3         10.3232    5.9285   -0.0594 C.ar      1 <0>        -0.1259
      4 C4          8.9631    6.1569   -0.0459 C.ar      1 <0>        -0.0866
      5 C5          8.0768    5.0768   -0.0440 C.ar      1 <0>        -0.0586
      6 C6          8.5762    3.7720   -0.0498 C.ar      1 <0>        -0.0747
      7 C7          9.9388    3.5588   -0.0681 C.ar      1 <0>        -0.1257
      8 C8          6.6216    5.3128   -0.0297 C.2       1 <0>         0.0954
      9 N1          5.8006    4.3067   -0.0279 N.2       1 <0>        -0.1935
     10 N2          4.4177    4.5309   -0.0143 N.pl3     1 <0>        -0.5621
     11 C9          3.5406    3.4559   -0.0124 C.2       1 <0>         0.4872
     12 N3          3.8751    2.1884   -0.0219 N.2       1 <0>        -0.3145
     13 N4          2.6973    1.4298   -0.0103 N.2       1 <0>        -0.3054
     14 C10         1.6811    2.2592   -0.0019 C.2       1 <0>         0.1740
     15 N5          2.1755    3.5325    0.0003 N.pl3     1 <0>        -0.2628
     16 N6          1.4359    4.6809    0.0128 N.3       1 <0>        -0.7779
     17 S1         -0.0225    1.8097    0.0120 S.3       1 <0>         0.0707
     18 C11         0.0021   -0.0041    0.0020 C.3       1 <0>        -0.1443
     19 C12        -1.4117   -0.5257    0.0127 C.2       1 <0>         0.5373
     20 O1         -2.3441    0.2498    0.0258 O.2       1 <0>        -0.5266
     21 N7         -1.6400   -1.8540    0.0078 N.am      1 <0>        -0.7328
     22 C13        -3.0144   -2.3611    0.0182 C.3       1 <0>         0.1286
     23 C14        -2.9937   -3.8909    0.0097 C.3       1 <0>        -0.0974
     24 C15        -4.4075   -4.4125    0.0204 C.ar      1 <0>        -0.0753
     25 C16        -5.0065   -4.7615    1.2164 C.ar      1 <0>        -0.1015
     26 C17        -6.3048   -5.2358    1.2268 C.ar      1 <0>        -0.1125
     27 C18        -7.0016   -5.3707    0.0402 C.ar      1 <0>        -0.1073
     28 C19        -6.4020   -5.0271   -1.1565 C.ar      1 <0>        -0.1084
     29 C20        -5.1040   -4.5476   -1.1670 C.ar      1 <0>        -0.0319
     30 Cl1        -4.3498   -4.1163   -2.6700 Cl        1 <0>        -0.0642
     31 H1         12.8260    5.3572   -0.0845 H         1 <0>         0.0670
     32 H2         12.5692    3.8260   -0.9879 H         1 <0>         0.0728
     33 H3         12.5848    3.8173    0.8083 H         1 <0>         0.0728
     34 H4         11.0095    6.7624   -0.0609 H         1 <0>         0.1268
     35 H5          8.5841    7.1682   -0.0366 H         1 <0>         0.1276
     36 H6          7.8970    2.9323   -0.0438 H         1 <0>         0.1359
     37 H7         10.3263    2.5508   -0.0768 H         1 <0>         0.1265
     38 H8          6.2313    6.3412   -0.0206 H         1 <0>         0.1238
     39 H9          4.0273    5.5593   -0.0051 H         1 <0>         0.4089
     40 H10         0.3372    4.6274    0.0224 H         1 <0>         0.4497
     41 H11         1.9390    5.6591    0.0132 H         1 <0>         0.4364
     42 H12         0.5170   -0.3588   -0.9030 H         1 <0>         0.1291
     43 H13         0.5341   -0.3685    0.8931 H         1 <0>         0.1293
     44 H14        -0.7943   -2.5573   -0.0040 H         1 <0>         0.4277
     45 H15        -3.5292   -2.0064    0.9233 H         1 <0>         0.0716
     46 H16        -3.5465   -1.9967   -0.8729 H         1 <0>         0.0737
     47 H17        -2.4789   -4.2456   -0.8954 H         1 <0>         0.0890
     48 H18        -2.4617   -4.2554    0.9008 H         1 <0>         0.0872
     49 H19        -4.4613   -4.6602    2.1431 H         1 <0>         0.1331
     50 H20        -6.7736   -5.5052    2.1617 H         1 <0>         0.1309
     51 H21        -8.0147   -5.7449    0.0486 H         1 <0>         0.1332
     52 H22        -6.9462   -5.1331   -2.0833 H         1 <0>         0.1347
@<TRIPOS>BOND
     1    1    2 1
     2    1   31 1
     3    1   32 1
     4    1   33 1
     5    2    7 ar
     6    2    3 ar
     7    3    4 ar
     8    3   34 1
     9    4    5 ar
    10    4   35 1
    11    5    6 ar
    12    5    8 1
    13    6    7 ar
    14    6   36 1
    15    7   37 1
    16    8    9 2
    17    8   38 1
    18    9   10 1
    19   10   11 1
    20   10   39 1
    21   11   15 1
    22   11   12 2
    23   12   13 1
    24   13   14 2
    25   14   15 1
    26   14   17 1
    27   15   16 1
    28   16   40 1
    29   16   41 1
    30   17   18 1
    31   18   19 1
    32   18   42 1
    33   18   43 1
    34   19   20 2
    35   19   21 am
    36   21   22 1
    37   21   44 1
    38   22   23 1
    39   22   45 1
    40   22   46 1
    41   23   24 1
    42   23   47 1
    43   23   48 1
    44   24   29 ar
    45   24   25 ar
    46   25   26 ar
    47   25   49 1
    48   26   27 ar
    49   26   50 1
    50   27   28 ar
    51   27   51 1
    52   28   29 ar
    53   28   52 1
    54   29   30 1
