@<TRIPOS>MOLECULE
ZINC65305811
   56    58     0     0     0
SMALL
USER_CHARGES

@<TRIPOS>ATOM
      1 C1          0.6652    1.8658    1.2390 C.3       1 <0>        -0.1222
      2 C2          0.5357    0.4104    0.8705 C.ar      1 <0>        -0.0729
      3 C3          0.7499    0.0059   -0.4339 C.ar      1 <0>        -0.1192
      4 C4          0.6311   -1.3292   -0.7720 C.ar      1 <0>        -0.1005
      5 C5          0.2985   -2.2599    0.1945 C.ar      1 <0>        -0.0910
      6 C6          0.0851   -1.8556    1.4990 C.ar      1 <0>        -0.0985
      7 C7          0.2081   -0.5211    1.8379 C.ar      1 <0>        -0.1177
      8 C8          0.1679   -3.7153   -0.1742 C.3       1 <0>        -0.0944
      9 C9          1.5024   -4.3963   -0.0115 C.2       1 <0>         0.5230
     10 O1          2.4647   -3.7623    0.3666 O.2       1 <0>        -0.5060
     11 N1          1.6265   -5.7099   -0.2862 N.am      1 <0>        -0.7298
     12 C10         2.9443   -6.3478   -0.2345 C.3       1 <0>         0.1407
     13 H1          3.7098   -5.6234   -0.5127 H         1 <0>         0.1326
     14 C11         3.2114   -6.8523    1.1850 C.3       1 <0>        -0.1334
     15 C12         4.6374   -7.3998    1.2719 C.3       1 <0>        -0.0952
     16 C13         5.6354   -6.2535    1.0962 C.3       1 <0>        -0.1660
     17 C14         4.8495   -8.0559    2.6377 C.3       1 <0>        -0.1536
     18 C15         2.9786   -7.5087   -1.1949 C.2       1 <0>         0.5341
     19 O2          1.9423   -7.9969   -1.5933 O.2       1 <0>        -0.4766
     20 N2          4.1608   -8.0043   -1.6111 N.am      1 <0>        -0.7270
     21 C16         4.1958   -9.0611   -2.6251 C.3       1 <0>         0.4766
     22 N3          3.8731  -10.3567   -2.0141 N.pl3     1 <0>        -0.4755
     23 C17         4.9023  -11.1354   -2.1833 C.ar      1 <0>         0.3356
     24 C18         5.1760  -12.5271   -1.7991 C.ar      1 <0>        -0.1363
     25 C19         6.3616  -13.0840   -2.1174 C.ar      1 <0>         0.0334
     26 C20         7.3659  -12.3851   -2.8106 C.ar      1 <0>         0.0560
     27 C21         7.2182  -11.1057   -3.2088 C.ar      1 <0>        -0.1474
     28 C22         5.9651  -10.3958   -2.9175 C.ar      1 <0>         0.3467
     29 N4          5.5518   -9.1883   -3.1737 N.pl3     1 <0>        -0.4903
     30 H2          1.6941    2.0766    1.5307 H         1 <0>         0.0742
     31 H3          0.3970    2.4830    0.3815 H         1 <0>         0.0700
     32 H4         -0.0017    2.0907    2.0713 H         1 <0>         0.0705
     33 H5          1.0098    0.7331   -1.1890 H         1 <0>         0.1247
     34 H6          0.7978   -1.6451   -1.7912 H         1 <0>         0.1171
     35 H7         -0.1752   -2.5827    2.2540 H         1 <0>         0.1195
     36 H8          0.0450   -0.2057    2.8579 H         1 <0>         0.1257
     37 H9         -0.5647   -4.1910    0.4777 H         1 <0>         0.1095
     38 H10        -0.1590   -3.7996   -1.2106 H         1 <0>         0.1080
     39 H11         0.8432   -6.2330   -0.5182 H         1 <0>         0.4146
     40 H12         3.0943   -6.0300    1.8909 H         1 <0>         0.1102
     41 H13         2.5028   -7.6439    1.4287 H         1 <0>         0.0817
     42 H14         4.7912   -8.1391    0.4858 H         1 <0>         0.0412
     43 H15         5.4364   -5.7394    0.1559 H         1 <0>         0.0538
     44 H16         5.5314   -5.5512    1.9233 H         1 <0>         0.0800
     45 H17         6.6494   -6.6532    1.0843 H         1 <0>         0.0638
     46 H18         4.1385   -8.8725    2.7628 H         1 <0>         0.0577
     47 H19         5.8654   -8.4459    2.6996 H         1 <0>         0.0633
     48 H20         4.6957   -7.3165    3.4237 H         1 <0>         0.0729
     49 H21         4.9884   -7.6613   -1.2392 H         1 <0>         0.4389
     50 H22         3.4887   -8.8366   -3.4236 H         1 <0>         0.2480
     51 H23         4.4323  -13.0998   -1.2650 H         1 <0>         0.2092
     52 H24         6.5478  -14.1078   -1.8281 H         1 <0>         0.2076
     53 H25         8.2925  -12.8935   -3.0324 H         1 <0>         0.2085
     54 H26         8.0157  -10.6058   -3.7385 H         1 <0>         0.2106
     55 H27         3.0448  -10.5895   -1.5661 H         1 <0>         0.4949
     56 H28         6.0485   -8.4990   -3.6417 H         1 <0>         0.4989
@<TRIPOS>BOND
     1    1    2 1
     2    1   30 1
     3    1   31 1
     4    1   32 1
     5    2    7 ar
     6    2    3 ar
     7    3    4 ar
     8    3   33 1
     9    4    5 ar
    10    4   34 1
    11    5    6 ar
    12    5    8 1
    13    6    7 ar
    14    6   35 1
    15    7   36 1
    16    8    9 1
    17    8   37 1
    18    8   38 1
    19    9   10 2
    20    9   11 am
    21   11   12 1
    22   11   39 1
    23   12   13 1
    24   12   14 1
    25   12   18 1
    26   14   15 1
    27   14   40 1
    28   14   41 1
    29   15   16 1
    30   15   17 1
    31   15   42 1
    32   16   43 1
    33   16   44 1
    34   16   45 1
    35   17   46 1
    36   17   47 1
    37   17   48 1
    38   18   19 2
    39   18   20 am
    40   20   21 1
    41   20   49 1
    42   21   29 1
    43   21   22 1
    44   21   50 1
    45   22   23 2
    46   22   55 1
    47   23   28 ar
    48   23   24 ar
    49   24   25 ar
    50   24   51 1
    51   25   26 ar
    52   25   52 1
    53   26   27 ar
    54   26   53 1
    55   27   28 ar
    56   27   54 1
    57   28   29 2
    58   29   56 1
