@<TRIPOS>MOLECULE
ZINC59286950
   60    62     0     0     0
SMALL
USER_CHARGES

@<TRIPOS>ATOM
      1 C1          1.3742   -5.3283   -1.2532 C.3       1 <0>        -0.1516
      2 C2          1.2989   -5.3526    0.2748 C.3       1 <0>        -0.1106
      3 H1          2.0945   -5.9852    0.6684 H         1 <0>         0.0939
      4 C3         -0.0597   -5.9086    0.7111 C.3       1 <0>        -0.1301
      5 C4         -0.1552   -5.8557    2.2386 C.3       1 <0>        -0.1125
      6 H2         -1.1409   -6.1980    2.5538 H         1 <0>         0.1215
      7 C5          0.0597   -4.4152    2.7080 C.3       1 <0>        -0.0046
      8 N1          1.3856   -3.9508    2.2828 N.4       1 <0>        -0.3838
      9 C6          1.4610   -3.9309    0.8170 C.3       1 <0>        -0.0189
     10 C7          1.6182   -2.5964    2.8019 C.3       1 <0>         0.0402
     11 C8          3.0411   -2.1879    2.5200 C.ar      1 <0>        -0.1199
     12 C9          3.9408   -3.1134    2.0246 C.ar      1 <0>        -0.1412
     13 C10         5.2458   -2.7387    1.7661 C.ar      1 <0>        -0.0871
     14 C11         5.6514   -1.4382    2.0024 C.ar      1 <0>        -0.0954
     15 C12         4.7517   -0.5128    2.4968 C.ar      1 <0>        -0.0784
     16 C13         3.4452   -0.8865    2.7514 C.ar      1 <0>        -0.0823
     17 C14         2.4629    0.1238    3.2855 C.3       1 <0>         0.1533
     18 N2          2.2281   -0.1286    4.7093 N.am      1 <0>        -0.7325
     19 C15         1.3793    0.6564    5.4019 C.2       1 <0>         0.5158
     20 O1          0.8098    1.5718    4.8465 O.2       1 <0>        -0.4942
     21 C16         1.1379    0.3966    6.8666 C.3       1 <0>         0.0387
     22 O2          0.2064    1.3547    7.3730 O.3       1 <0>        -0.2802
     23 C17        -0.1225    1.2600    8.6882 C.ar      1 <0>         0.1304
     24 C18         0.4442    0.2688    9.4766 C.ar      1 <0>        -0.1635
     25 C19         0.1086    0.1749   10.8132 C.ar      1 <0>        -0.0733
     26 C20        -0.7913    1.0677   11.3657 C.ar      1 <0>        -0.0880
     27 C21        -1.3576    2.0559   10.5822 C.ar      1 <0>        -0.0052
     28 C22        -1.0209    2.1576    9.2461 C.ar      1 <0>        -0.0855
     29 N3         -2.3208    3.0096   11.1767 N.pl3     1 <0>         0.0275
     30 O3         -2.6120    2.9242   12.3470 O.2       1 <0>        -0.1430
     31 O4         -2.8164    3.8740   10.4920 O.3       1 <0>        -0.1454
     32 C23         0.9186   -6.7585    2.8492 C.3       1 <0>        -0.1709
     33 H3          2.3407   -4.9310   -1.5630 H         1 <0>         0.0684
     34 H4          1.2571   -6.3411   -1.6388 H         1 <0>         0.0786
     35 H5          0.5783   -4.6956   -1.6461 H         1 <0>         0.0681
     36 H6         -0.8569   -5.3068    0.2750 H         1 <0>         0.0845
     37 H7         -0.1557   -6.9412    0.3755 H         1 <0>         0.0963
     38 H8         -0.7064   -3.7736    2.2726 H         1 <0>         0.1321
     39 H9         -0.0079   -4.3739    3.7951 H         1 <0>         0.1308
     40 H10         2.4274   -3.5327    0.5080 H         1 <0>         0.1368
     41 H11         0.6655   -3.2990    0.4220 H         1 <0>         0.1317
     42 H12         0.9366   -1.8987    2.3153 H         1 <0>         0.1420
     43 H13         1.4431   -2.5847    3.8777 H         1 <0>         0.1378
     44 H14         3.6240   -4.1292    1.8400 H         1 <0>         0.1182
     45 H15         5.9488   -3.4619    1.3798 H         1 <0>         0.1390
     46 H16         6.6713   -1.1456    1.8010 H         1 <0>         0.1408
     47 H17         5.0686    0.5030    2.6817 H         1 <0>         0.1414
     48 H18         2.8677    1.1276    3.1564 H         1 <0>         0.0921
     49 H19         1.5222    0.0387    2.7414 H         1 <0>         0.0840
     50 H20         2.6836   -0.8608    5.1536 H         1 <0>         0.4028
     51 H21         0.7330   -0.6071    6.9957 H         1 <0>         0.0970
     52 H22         2.0786    0.4817    7.4106 H         1 <0>         0.1015
     53 H23         1.1468   -0.4290    9.0455 H         1 <0>         0.1450
     54 H24         0.5492   -0.5967   11.4272 H         1 <0>         0.1543
     55 H25        -1.0523    0.9927   12.4110 H         1 <0>         0.1597
     56 H26        -1.4602    2.9326    8.6355 H         1 <0>         0.1649
     57 H27         1.9041   -6.4147    2.5350 H         1 <0>         0.0492
     58 H28         0.8501   -6.7204    3.9364 H         1 <0>         0.0733
     59 H29         0.7665   -7.7836    2.5114 H         1 <0>         0.0866
     60 H30         2.0914   -4.5738    2.6458 H         1 <0>         0.4199
@<TRIPOS>BOND
     1    1    2 1
     2    1   33 1
     3    1   34 1
     4    1   35 1
     5    2    3 1
     6    2    9 1
     7    2    4 1
     8    4    5 1
     9    4   36 1
    10    4   37 1
    11    5    6 1
    12    5    7 1
    13    5   32 1
    14    7    8 1
    15    7   38 1
    16    7   39 1
    17    8    9 1
    18    8   10 1
    19    8   60 1
    20    9   40 1
    21    9   41 1
    22   10   11 1
    23   10   42 1
    24   10   43 1
    25   11   16 ar
    26   11   12 ar
    27   12   13 ar
    28   12   44 1
    29   13   14 ar
    30   13   45 1
    31   14   15 ar
    32   14   46 1
    33   15   16 ar
    34   15   47 1
    35   16   17 1
    36   17   18 1
    37   17   48 1
    38   17   49 1
    39   18   19 am
    40   18   50 1
    41   19   20 2
    42   19   21 1
    43   21   22 1
    44   21   51 1
    45   21   52 1
    46   22   23 1
    47   23   28 ar
    48   23   24 ar
    49   24   25 ar
    50   24   53 1
    51   25   26 ar
    52   25   54 1
    53   26   27 ar
    54   26   55 1
    55   27   28 ar
    56   27   29 1
    57   28   56 1
    58   29   30 2
    59   29   31 1
    60   32   57 1
    61   32   58 1
    62   32   59 1
