@<TRIPOS>MOLECULE
ZINC36528094
   64    67     0     0     0
SMALL
USER_CHARGES

@<TRIPOS>ATOM
      1 C1          0.2648    1.2168    0.4438 C.3       1 <0>        -0.1660
      2 C2          0.2751   -0.3000    0.2430 C.3       1 <0>         0.1700
      3 C3          1.0701   -0.9585    1.3723 C.3       1 <0>        -0.1639
      4 C4         -1.1616   -0.8259    0.2567 C.3       1 <0>        -0.1575
      5 N1          0.8993   -0.6181   -1.0436 N.am      1 <0>        -0.7166
      6 C5          2.1731   -0.2492   -1.2841 C.2       1 <0>         0.5136
      7 O1          2.7732    0.4233   -0.4726 O.2       1 <0>        -0.5183
      8 C6          2.8518   -0.6724   -2.5614 C.3       1 <0>         0.1627
      9 H1          2.7894   -1.7557   -2.6643 H         1 <0>         0.1388
     10 C7          2.1694   -0.0163   -3.7340 C.ar      1 <0>        -0.0942
     11 C8          1.4027    1.0735   -3.5258 C.ar      1 <0>        -0.0723
     12 C9          0.7418    1.7248   -4.5928 C.ar      1 <0>        -0.0559
     13 C10        -0.0528    2.8576   -4.3662 C.ar      1 <0>        -0.0959
     14 C11        -0.6785    3.4664   -5.4142 C.ar      1 <0>        -0.1162
     15 C12        -0.5408    2.9793   -6.7088 C.ar      1 <0>        -0.1025
     16 C13         0.2260    1.8780   -6.9624 C.ar      1 <0>        -0.1095
     17 C14         0.8795    1.2331   -5.9106 C.ar      1 <0>        -0.0272
     18 C15         1.7123    0.0486   -6.1367 C.ar      1 <0>        -0.0361
     19 C16         2.3515   -0.5533   -5.0293 C.ar      1 <0>        -0.0347
     20 C17         3.1550   -1.6837   -5.2360 C.ar      1 <0>        -0.1137
     21 C18         3.3128   -2.1808   -6.4964 C.ar      1 <0>        -0.1091
     22 C19         2.6873   -1.5822   -7.5837 C.ar      1 <0>        -0.1076
     23 C20         1.8888   -0.4873   -7.4139 C.ar      1 <0>        -0.1051
     24 N2          4.2586   -0.2655   -2.5248 N.am      1 <0>        -0.5761
     25 C21         4.6098    1.1568   -2.5131 C.3       1 <0>         0.0644
     26 C22         5.2299   -1.1996   -2.5019 C.2       1 <0>         0.5721
     27 O2          4.9454   -2.3753   -2.6221 O.2       1 <0>        -0.5088
     28 C23         6.6414   -0.7944   -2.3308 C.ar      1 <0>        -0.1202
     29 C24         6.9654    0.2886   -1.5120 C.ar      1 <0>         0.0143
     30 C25         8.2845    0.6613   -1.3562 C.ar      1 <0>        -0.0522
     31 C26         9.2852   -0.0356   -2.0098 C.ar      1 <0>         0.0260
     32 C27         8.9709   -1.1101   -2.8228 C.ar      1 <0>        -0.0517
     33 C28         7.6563   -1.4967   -2.9826 C.ar      1 <0>         0.0424
     34 N3         10.0480   -1.8499   -3.5181 N.pl3     1 <0>         0.0306
     35 O3         11.2009   -1.5151   -3.3753 O.2       1 <0>        -0.1309
     36 O4          9.7748   -2.7890   -4.2289 O.3       1 <0>        -0.1295
     37 N4          8.6299    1.8095   -0.4884 N.pl3     1 <0>         0.0305
     38 O5          7.7564    2.4197    0.0830 O.2       1 <0>        -0.1298
     39 O6          9.7854    2.1373   -0.3509 O.3       1 <0>        -0.1308
     40 H2          1.2884    1.5915    0.4340 H         1 <0>         0.0815
     41 H3         -0.3015    1.6859   -0.3607 H         1 <0>         0.0540
     42 H4         -0.1996    1.4534    1.4010 H         1 <0>         0.0650
     43 H5          0.6056   -0.7218    2.3295 H         1 <0>         0.0667
     44 H6          1.0773   -2.0391    1.2292 H         1 <0>         0.0552
     45 H7          2.0936   -0.5838    1.3625 H         1 <0>         0.0742
     46 H8         -1.7280   -0.3568   -0.5478 H         1 <0>         0.0636
     47 H9         -1.1543   -1.9065    0.1137 H         1 <0>         0.0633
     48 H10        -1.6261   -0.5893    1.2140 H         1 <0>         0.0763
     49 H11         0.3959   -1.0942   -1.7224 H         1 <0>         0.4027
     50 H12         1.2908    1.4569   -2.5224 H         1 <0>         0.1298
     51 H13        -0.1692    3.2466   -3.3654 H         1 <0>         0.1288
     52 H14        -1.2897    4.3387   -5.2357 H         1 <0>         0.1273
     53 H15        -1.0462    3.4772   -7.5231 H         1 <0>         0.1281
     54 H16         0.3261    1.5075   -7.9719 H         1 <0>         0.1297
     55 H17         3.6473   -2.1588   -4.4004 H         1 <0>         0.1363
     56 H18         3.9328   -3.0515   -6.6516 H         1 <0>         0.1267
     57 H19         2.8267   -1.9932   -8.5727 H         1 <0>         0.1278
     58 H20         1.4074   -0.0296   -8.2655 H         1 <0>         0.1296
     59 H21         4.7504    1.4878   -1.4842 H         1 <0>         0.0828
     60 H22         5.5329    1.3077   -3.0727 H         1 <0>         0.0693
     61 H23         3.8073    1.7329   -2.9737 H         1 <0>         0.0872
     62 H24         6.1850    0.8339   -1.0019 H         1 <0>         0.1879
     63 H25        10.3163    0.2606   -1.8850 H         1 <0>         0.1896
     64 H26         7.4126   -2.3384   -3.6140 H         1 <0>         0.1833
@<TRIPOS>BOND
     1    1    2 1
     2    1   40 1
     3    1   41 1
     4    1   42 1
     5    2    3 1
     6    2    4 1
     7    2    5 1
     8    3   43 1
     9    3   44 1
    10    3   45 1
    11    4   46 1
    12    4   47 1
    13    4   48 1
    14    5    6 am
    15    5   49 1
    16    6    7 2
    17    6    8 1
    18    8    9 1
    19    8   10 1
    20    8   24 1
    21   10   19 ar
    22   10   11 ar
    23   11   12 ar
    24   11   50 1
    25   12   17 ar
    26   12   13 ar
    27   13   14 ar
    28   13   51 1
    29   14   15 ar
    30   14   52 1
    31   15   16 ar
    32   15   53 1
    33   16   17 ar
    34   16   54 1
    35   17   18 ar
    36   18   23 ar
    37   18   19 ar
    38   19   20 ar
    39   20   21 ar
    40   20   55 1
    41   21   22 ar
    42   21   56 1
    43   22   23 ar
    44   22   57 1
    45   23   58 1
    46   24   25 1
    47   24   26 am
    48   25   59 1
    49   25   60 1
    50   25   61 1
    51   26   27 2
    52   26   28 1
    53   28   33 ar
    54   28   29 ar
    55   29   30 ar
    56   29   62 1
    57   30   31 ar
    58   30   37 1
    59   31   32 ar
    60   31   63 1
    61   32   33 ar
    62   32   34 1
    63   33   64 1
    64   34   35 2
    65   34   36 1
    66   37   38 2
    67   37   39 1
