@<TRIPOS>MOLECULE
ZINC14041278
   47    48     0     0     0
SMALL
USER_CHARGES
3-bromo-N'-[2-(4-bromophenoxy)acetyl]-4-butoxy-benzohydrazide
@<TRIPOS>ATOM
      1 C1         -0.0960   14.2319    0.0788 C.3       1 <0>        -0.1534
      2 C2         -0.2751   12.7124    0.0724 C.3       1 <0>        -0.1214
      3 C3          1.0977   12.0371    0.0557 C.3       1 <0>        -0.1203
      4 C4          0.9185   10.5177    0.0492 C.3       1 <0>         0.0526
      5 O1          2.2007    9.8869    0.0336 O.3       1 <0>        -0.2935
      6 C5          2.2198    8.5298    0.0262 C.ar      1 <0>         0.1943
      7 C6          1.0250    7.8198    0.0342 C.ar      1 <0>        -0.2101
      8 C7          1.0399    6.4429    0.0209 C.ar      1 <0>        -0.0260
      9 C8          2.2584    5.7589    0.0114 C.ar      1 <0>        -0.1693
     10 C9          3.4577    6.4757    0.0038 C.ar      1 <0>         0.0169
     11 C10         3.4346    7.8534    0.0110 C.ar      1 <0>        -0.1389
     12 Br1         5.0567    8.8253    0.0007 Br        1 <0>        -0.0189
     13 C11         2.2784    4.2830    0.0033 C.2       1 <0>         0.5715
     14 O2          3.3395    3.6895   -0.0100 O.2       1 <0>        -0.5301
     15 N1          1.1205    3.5933    0.0107 N.am      1 <0>        -0.5176
     16 N2          1.1395    2.1925    0.0030 N.am      1 <0>        -0.5170
     17 C12        -0.0184    1.5028    0.0103 C.2       1 <0>         0.5184
     18 O3         -1.0768    2.0948    0.0185 O.2       1 <0>        -0.5108
     19 C13         0.0021   -0.0041    0.0020 C.3       1 <0>         0.0510
     20 O4         -1.3386   -0.4987    0.0122 O.3       1 <0>        -0.2845
     21 C14        -1.4983   -1.8484    0.0064 C.ar      1 <0>         0.1437
     22 C15        -0.3876   -2.6793   -0.0144 C.ar      1 <0>        -0.2053
     23 C16        -0.5521   -4.0509   -0.0139 C.ar      1 <0>        -0.0478
     24 C17        -1.8236   -4.5960   -0.0047 C.ar      1 <0>        -0.1277
     25 C18        -2.9327   -3.7691    0.0099 C.ar      1 <0>        -0.0487
     26 C19        -2.7725   -2.3971    0.0157 C.ar      1 <0>        -0.1391
     27 Br2        -2.0459   -6.4738   -0.0113 Br        1 <0>        -0.0466
     28 H1          0.4653   14.5278    0.9651 H         1 <0>         0.0568
     29 H2          0.4483   14.5374   -0.8148 H         1 <0>         0.0568
     30 H3         -1.0740   14.7130    0.0907 H         1 <0>         0.0584
     31 H4         -0.8364   12.4165   -0.8139 H         1 <0>         0.0656
     32 H5         -0.8195   12.4070    0.9660 H         1 <0>         0.0656
     33 H6          1.6590   12.3331    0.9419 H         1 <0>         0.0770
     34 H7          1.6420   12.3426   -0.8379 H         1 <0>         0.0770
     35 H8          0.3572   10.2217   -0.8370 H         1 <0>         0.0693
     36 H9          0.3742   10.2122    0.9428 H         1 <0>         0.0693
     37 H10         0.0835    8.3488    0.0464 H         1 <0>         0.1473
     38 H11         0.1108    5.8922    0.0223 H         1 <0>         0.1373
     39 H12         4.4014    5.9507   -0.0080 H         1 <0>         0.1564
     40 H13         0.2740    4.0668    0.0213 H         1 <0>         0.4327
     41 H14         1.9860    1.7190   -0.0077 H         1 <0>         0.4359
     42 H15         0.5123   -0.3556   -0.8948 H         1 <0>         0.1052
     43 H16         0.5293   -0.3651    0.8851 H         1 <0>         0.1050
     44 H17         0.6051   -2.2541   -0.0261 H         1 <0>         0.1385
     45 H18         0.3124   -4.6981   -0.0252 H         1 <0>         0.1382
     46 H19        -3.9244   -4.1967    0.0170 H         1 <0>         0.1426
     47 H20        -3.6385   -1.7519    0.0277 H         1 <0>         0.1438
@<TRIPOS>BOND
     1    1    2 1
     2    1   28 1
     3    1   29 1
     4    1   30 1
     5    2    3 1
     6    2   31 1
     7    2   32 1
     8    3    4 1
     9    3   33 1
    10    3   34 1
    11    4    5 1
    12    4   35 1
    13    4   36 1
    14    5    6 1
    15    6   11 ar
    16    6    7 ar
    17    7    8 ar
    18    7   37 1
    19    8    9 ar
    20    8   38 1
    21    9   10 ar
    22    9   13 1
    23   10   11 ar
    24   10   39 1
    25   11   12 1
    26   13   14 2
    27   13   15 am
    28   15   16 1
    29   15   40 1
    30   16   17 am
    31   16   41 1
    32   17   18 2
    33   17   19 1
    34   19   20 1
    35   19   42 1
    36   19   43 1
    37   20   21 1
    38   21   26 ar
    39   21   22 ar
    40   22   23 ar
    41   22   44 1
    42   23   24 ar
    43   23   45 1
    44   24   25 ar
    45   24   27 1
    46   25   26 ar
    47   25   46 1
    48   26   47 1
