@<TRIPOS>MOLECULE
ZINC42421553
   47    48     0     0     0
SMALL
USER_CHARGES

@<TRIPOS>ATOM
      1 C1         -0.0187    1.5258    0.0104 C.3       1 <0>        -0.1599
      2 C2          0.0021   -0.0041    0.0020 C.3       1 <0>         0.0580
      3 O1         -1.3386   -0.4987    0.0122 O.3       1 <0>        -0.3655
      4 C3         -1.4321   -1.9246    0.0054 C.3       1 <0>         0.0772
      5 H1         -0.5729   -2.3432   -0.5188 H         1 <0>         0.0830
      6 C4         -1.4539   -2.4425    1.4464 C.3       1 <0>        -0.1684
      7 C5         -1.6330   -3.9633    1.4292 C.3       1 <0>        -0.1414
      8 C6         -2.9139   -4.3120    0.6681 C.3       1 <0>        -0.0265
      9 N1         -2.8202   -3.8133   -0.7092 N.4       1 <0>        -0.3795
     10 C7         -2.7198   -2.3489   -0.7039 C.3       1 <0>        -0.0363
     11 C8         -4.0178   -4.2178   -1.4575 C.3       1 <0>         0.0202
     12 C9         -5.2514   -3.6056   -0.8005 C.3       1 <0>        -0.1317
     13 C10        -6.4711   -3.7872   -1.7077 C.3       1 <0>        -0.6261
     14 S1         -6.8011   -5.5639   -1.9005 S.o2      1 <0>         2.4177
     15 O2         -7.0793   -6.1134   -0.6199 O.2       1 <0>        -0.8932
     16 O3         -7.7447   -5.7371   -2.9487 O.2       1 <0>        -0.8907
     17 C11        -5.1894   -6.1897   -2.4602 C.3       1 <0>        -0.6380
     18 C12        -4.1125   -5.7406   -1.4693 C.3       1 <0>        -0.1495
     19 C13        -3.9089   -3.7085   -2.8961 C.3       1 <0>        -0.0460
     20 N2         -2.7147   -4.2830   -3.5299 N.4       1 <0>        -0.6469
     21 H2          1.0039    1.9031    0.0027 H         1 <0>         0.0866
     22 H3         -0.5459    1.8868   -0.8726 H         1 <0>         0.0673
     23 H4         -0.5289    1.8773    0.9072 H         1 <0>         0.0718
     24 H5          0.5123   -0.3556   -0.8948 H         1 <0>         0.0575
     25 H6          0.5293   -0.3651    0.8851 H         1 <0>         0.0636
     26 H7         -0.5141   -2.1917    1.9382 H         1 <0>         0.1059
     27 H8         -2.2827   -1.9840    1.9860 H         1 <0>         0.0993
     28 H9         -0.7785   -4.4248    0.9343 H         1 <0>         0.0928
     29 H10        -1.7054   -4.3329    2.4521 H         1 <0>         0.1320
     30 H11        -3.0446   -5.3940    0.6542 H         1 <0>         0.1481
     31 H12        -3.7677   -3.8502    1.1640 H         1 <0>         0.1495
     32 H13        -3.5782   -1.9289   -0.1795 H         1 <0>         0.1611
     33 H14        -2.7068   -1.9817   -1.7301 H         1 <0>         0.1353
     34 H15        -5.4345   -4.0977    0.1547 H         1 <0>         0.1368
     35 H16        -5.0813   -2.5423   -0.6314 H         1 <0>         0.1310
     36 H17        -7.3368   -3.3018   -1.2571 H         1 <0>         0.1769
     37 H18        -6.2693   -3.3454   -2.6835 H         1 <0>         0.1440
     38 H19        -5.2153   -7.2786   -2.5027 H         1 <0>         0.1792
     39 H20        -4.9656   -5.7892   -3.4490 H         1 <0>         0.1329
     40 H21        -3.1510   -6.1607   -1.7648 H         1 <0>         0.1150
     41 H22        -4.3690   -6.0950   -0.4709 H         1 <0>         0.1460
     42 H23        -4.7959   -4.0066   -3.4551 H         1 <0>         0.1813
     43 H24        -3.8306   -2.6213   -2.8917 H         1 <0>         0.1794
     44 H25        -2.7872   -5.2894   -3.5339 H         1 <0>         0.4468
     45 H26        -2.6429   -3.9471   -4.4786 H         1 <0>         0.4664
     46 H27        -2.0017   -4.2032   -1.1520 H         1 <0>         0.4091
     47 H28        -1.8936   -4.0071   -3.0124 H         1 <0>         0.4277
@<TRIPOS>BOND
     1    1    2 1
     2    1   21 1
     3    1   22 1
     4    1   23 1
     5    2    3 1
     6    2   24 1
     7    2   25 1
     8    3    4 1
     9    4    5 1
    10    4   10 1
    11    4    6 1
    12    6    7 1
    13    6   26 1
    14    6   27 1
    15    7    8 1
    16    7   28 1
    17    7   29 1
    18    8    9 1
    19    8   30 1
    20    8   31 1
    21    9   10 1
    22    9   11 1
    23    9   46 1
    24   10   32 1
    25   10   33 1
    26   11   18 1
    27   11   12 1
    28   11   19 1
    29   12   13 1
    30   12   34 1
    31   12   35 1
    32   13   14 1
    33   13   36 1
    34   13   37 1
    35   14   15 2
    36   14   16 2
    37   14   17 1
    38   17   18 1
    39   17   38 1
    40   17   39 1
    41   18   40 1
    42   18   41 1
    43   19   20 1
    44   19   42 1
    45   19   43 1
    46   20   44 1
    47   20   45 1
    48   20   47 1
